; Filename: D:/OneDrive/IHE_HI/015. Thesis/Github_repositories\Msc-Thesis/INP_FILES/Twoloops_Base_WNTR.inp
; WNTR: 0.4.2
; Created: 2023-03-07 09:37:58
[TITLE]

[JUNCTIONS]
;ID                      Elevation       Demand Pattern                 
 1                                160             100 33                         ;
 2                                150             100 33                         ;
 3                                150             270 33                         ;
 4                                155             120 33                         ;
 5                                160             200 33                         ;
 6                                165             330 33                         ;

[RESERVOIRS]
;ID                                   Head                  Pattern
 7                                210                            ;

[TANKS]
;ID                              Elevation           Init Level            Min Level            Max Level             Diameter           Min Volume Volume Curve         Overflow            

[PIPES]
;ID                   Node1                Node2                              Length             Diameter            Roughness           Minor Loss               Status
 1                    2                    1                               1000             200             130               0                 Open   ;
 2                    1                    3                               1000             150             130               0                 Open   ;
 3                    2                    4                               1000             450             130               0                 Open   ;
 4                    4                    3                               1000             150             130               0                 Open   ;
 5                    5                    3                               1000             150             130               0                 Open   ;
 6                    4                    6                               1000             400             130               0                 Open   ;
 7                    6                    5                               1000             250             130               0                 Open   ;
 8                    7                    2                               1000             450             130               0                 Open   ;

[PUMPS]
;ID                   Node1                Node2                Properties          

[VALVES]
;ID                   Node1                Node2                            Diameter Type              Setting           Minor Loss

[TAGS]
;type      name       tag       

[DEMANDS]
;ID        Demand     Pattern   

[STATUS]
;ID        Setting   

[PATTERNS]
;ID        Multipliers

33 0.995259 0.882561 0.875098 0.900688 0.849479 0.693085
33 0.751459 0.681531 0.662533 0.663408 0.635477 0.667854
33 0.627397 0.591419 0.590851 0.576355 0.605363 0.540213
33 0.549194 0.504546 0.444586 0.538896 0.538903 0.483647
33 0.568093 0.450576 0.488426 0.474870 0.516648 0.506714
33 0.462051 0.459696 0.417247 0.380154 0.412772 0.414967
33 0.429527 0.416265 0.367380 0.357300 0.329758 0.311409
33 0.295992 0.357693 0.302560 0.297689 0.278726 0.313336
33 0.270950 0.299569 0.292731 0.324622 0.316670 0.313272
33 0.347613 0.368583 0.371598 0.386943 0.373858 0.386852
33 0.383861 0.393354 0.382587 0.359865 0.404896 0.391005
33 0.363078 0.418159 0.392239 0.428549 0.464412 0.472538
33 0.534182 0.498876 0.598697 0.610189 0.656806 0.727418
33 0.801758 0.885276 0.882074 1.069029 1.108924 1.035880
33 1.307154 1.397504 1.397603 1.337059 1.304420 1.522990
33 1.431448 1.607639 1.544075 1.639504 1.602637 1.653377
33 1.601008 1.783419 1.631142 1.663426 1.811254 1.496768
33 1.503653 1.720016 1.507763 1.805961 1.571995 1.534101
33 1.784602 1.735383 1.765398 1.666986 1.492941 1.746790
33 1.534552 1.626246 1.630520 1.519149 1.579311 1.595749
33 1.533878 1.388805 1.499160 1.573875 1.382030 1.412926
33 1.371960 1.545640 1.428811 1.388390 1.275149 1.361114
33 1.247402 1.284076 1.215198 1.295904 1.270033 1.194940
33 1.221249 1.099005 1.056046 1.174157 1.140007 1.156483
33 1.257288 1.148240 1.015241 1.133463 0.968309 1.012418
33 1.027913 1.129284 0.971490 0.960811 1.000144 0.962519
33 1.067598 0.934095 0.929911 0.973064 0.970610 1.118001
33 1.060706 1.010163 0.931833 1.056959 0.944936 0.910352
33 1.071282 1.013975 1.043295 0.999859 1.022582 0.925738
33 0.894523 0.982433 0.888980 0.886212 0.890426 0.908163
33 0.880884 0.820257 0.854907 0.767519 0.916373 0.797138
33 0.823223 0.885157 0.844894 0.968894 0.821290 0.909109
33 0.897879 0.842495 0.941329 0.910499 0.970758 0.982324
33 1.067342 1.030143 0.941497 0.958153 1.046218 1.029737
33 1.038408 0.911153 1.016439 0.981181 1.052600 1.037504
33 1.109414 1.080350 1.118682 1.046185 1.022818 1.065283
33 1.098877 1.133017 1.266859 1.120614 1.066462 1.115676
33 1.115499 1.189033 1.056439 1.177112 1.192597 1.207191
33 1.156993 1.192421 1.115365 1.193117 1.199008 1.280221
33 1.171078 1.326636 1.389881 1.123696 1.322718 1.348040
33 1.250280 1.272300 1.295222 1.283587 1.283196 1.175813
33 1.396933 1.390121 1.240637 1.188313 1.342393 1.255728
33 1.311072 1.274909 1.353975 1.354762 1.244597 1.193948
33 1.179017 1.351055 1.210645 1.263931 1.256398 1.297759
33 1.148970 1.312016 1.334439 1.296143 1.259921 1.284889
33 1.300323 1.051480 1.398414 1.269610 1.180276 1.186354
33 1.235549 1.175514 1.024008 1.288996 1.118768 1.171547
33 1.035234 1.151730 1.044890 1.034662 0.906673 1.002541
33 0.937250 0.929190 0.795410 0.771026 0.869479 0.689430
33 0.705133 0.734692 0.670571 0.670104 0.614932 0.627895
33 0.552965 0.645545 0.571443 0.541983 0.577773 0.531826
33 0.495913 0.488827 0.546860 0.513595 0.508220 0.538920
33 0.466195 0.472011 0.475841 0.482983 0.471938 0.457645
33 0.456103 0.446603 0.421694 0.410384 0.428516 0.389135
33 0.372223 0.380980 0.372563 0.413174 0.337018 0.359679
33 0.344534 0.297371 0.326584 0.284009 0.253294 0.310261
33 0.268394 0.311652 0.296656 0.348847 0.347627 0.327984
33 0.333832 0.333172 0.360329 0.373653 0.380145 0.399177
33 0.413885 0.410462 0.383769 0.366814 0.433432 0.384090
33 0.386691 0.394138 0.368948 0.414965 0.432142 0.486363
33 0.520954 0.538917 0.617269 0.649315 0.692363 0.760867
33 0.807685 0.861400 0.933139 0.945569 1.096935 1.073064
33 1.260597 1.235989 1.309161 1.391700 1.447782 1.297385
33 1.448723 1.576880 1.369639 1.584738 1.356736 1.488824
33 1.603709 1.450697 1.523093 1.480812 1.788306 1.644500
33 1.683138 1.603756 1.587532 1.460486 1.583774 1.532748
33 1.682361 1.702925 1.727204 1.661911 1.517743 1.462255
33 1.631374 1.584712 1.379119 1.566117 1.597630 1.517428
33 1.483345 1.414833 1.344977 1.527857 1.415382 1.405754
33 1.555198 1.448410 1.403968 1.366809 1.458833 1.454488
33 1.372501 1.326400 1.104619 1.254605 1.217982 1.216884
33 1.260403 0.982806 1.120204 1.162524 1.097103 1.019327
33 1.157352 1.104712 1.011485 1.082334 1.103140 1.041586
33 1.081717 1.028823 0.992816 0.940613 1.000900 1.014110
33 1.052550 0.991915 1.026076 0.941478 0.953526 0.995361
33 0.940038 1.054339 1.033733 1.022840 1.025706 1.125018
33 0.971868 0.863619 1.000492 0.978118 0.942382 0.906791
33 0.928573 0.954103 0.905826 1.058272 0.862689 0.864040
33 0.776415 0.907500 0.781662 0.857004 0.868630 0.844356
33 0.973627 0.935043 0.954103 0.839842 0.950647 0.921401
33 0.941656 0.961952 0.862910 0.896547 0.975813 0.786921
33 1.030503 0.985317 0.960184 0.984977 0.920811 0.969980
33 1.066017 1.087634 1.182598 1.022089 0.994309 1.011449
33 0.987709 1.055219 1.092813 1.074094 1.155582 1.076805
33 1.077068 1.069179 1.006342 1.017782 1.051310 1.228292
33 1.209050 1.250986 1.071007 1.034149 1.134711 1.203165
33 1.235906 1.285753 1.240372 1.358067 1.222823 1.180613
33 1.131436 1.199646 1.294037 1.214633 1.362222 1.405201
33 1.115172 1.370939 1.130186 1.338423 1.403523 1.312360
33 1.206273 1.259693 1.283813 1.288707 1.285850 1.292087
33 1.316651 1.205558 1.281156 1.419023 1.271216 1.267345
33 1.387024 1.103197 1.396041 1.254147 1.315835 1.309389
33 1.373513 1.276492 1.241139 1.389702 1.101752 1.278982
33 1.167212 1.203671 1.402570 1.237254 1.242736 1.084991
33 1.147509 1.197721 1.190906 1.189378 1.126821 1.138880
33 1.109490 0.938751 1.029523 1.044188 1.001577 0.914219
33 0.856496 0.804038 0.820059 0.847916 0.674426 0.707106
33 0.662312 0.720169 0.644490 0.629174 0.621831 0.630672
33 0.585874 0.479823 0.594285 0.579927 0.548242 0.511371
33 0.550446 0.543899 0.510199 0.511816 0.483737 0.500763
33 0.453487 0.506014 0.459489 0.487125 0.433223 0.449174
33 0.454760 0.404708 0.443767 0.421614 0.377501 0.378964
33 0.414523 0.409117 0.373144 0.372739 0.356623 0.347145
33 0.355194 0.291260 0.324772 0.298718 0.297324 0.293941
33 0.293247 0.281117 0.312755 0.349064 0.325582 0.337128
33 0.333843 0.356815 0.380473 0.371603 0.378067 0.405028
33 0.377968 0.408118 0.422007 0.434202 0.398459 0.433541
33 0.427419 0.382542 0.384507 0.419400 0.472417 0.466875
33 0.481980 0.588976 0.594648 0.547735 0.706203 0.777105
33 0.828091 0.906110 0.944546 0.933983 1.054789 1.076317
33 1.132843 1.159678 1.340722 1.359590 1.356492 1.376562
33 1.464872 1.594765 1.341630 1.583771 1.517710 1.406782
33 1.413213 1.522597 1.640136 1.662556 1.535693 1.727824
33 1.766708 1.664102 1.564374 1.726465 1.685062 1.689722
33 1.536979 1.322740 1.789138 1.428225 1.570911 1.791048
33 1.590566 1.639911 1.403756 1.369857 1.474505 1.611040
33 1.468838 1.415994 1.490299 1.552492 1.317101 1.322172
33 1.342079 1.482647 1.392761 1.528634 1.412024 1.315680
33 1.398676 1.297892 1.209962 1.296169 1.176278 1.188979
33 1.287940 1.168994 1.103932 1.112126 1.197918 1.077103
33 1.074467 1.053390 1.085920 1.037699 0.950273 0.985829
33 0.974373 1.100405 1.066518 1.046561 0.975581 0.953358
33 0.969549 0.935776 1.148300 0.864688 1.034365 0.924771
33 0.997256 0.945314 0.934718 0.937172 1.111118 0.995343
33 0.954058 1.028234 0.989283 1.023483 0.866128 0.980918
33 0.997920 0.849738 0.959121 1.018542 0.914631 0.951923
33 0.936211 0.856059 0.891369 0.802401 0.859323 0.895969
33 0.919894 0.883699 0.922320 0.828111 0.884923 0.895807
33 0.999878 0.894350 0.885348 0.921147 0.876629 0.946898
33 0.924030 0.851167 0.959440 0.953594 0.885332 0.986792
33 1.089361 1.040609 1.055299 0.944008 1.064835 1.052946
33 1.085358 1.087055 0.981123 1.073632 1.034955 1.088871
33 1.040772 1.195054 1.058129 1.062866 1.136415 1.065697
33 1.118180 1.098099 1.262614 1.227950 1.177428 1.162658
33 1.267746 1.239100 1.256014 1.227577 1.113836 1.240613
33 1.218168 1.316284 1.352944 1.232398 1.325978 1.430349
33 1.247918 1.434898 1.238842 1.308739 1.306562 1.308175
33 1.240925 1.259242 1.252034 1.328515 1.327473 1.474375
33 1.406937 1.260051 1.325374 1.378357 1.303637 1.296577
33 1.306778 1.371144 1.237281 1.278099 1.339797 1.326193
33 1.318687 1.268536 1.369266 1.454375 1.315176 1.262617
33 1.327501 1.220505 1.195244 1.243016 1.038003 1.130738
33 1.174947 1.087635 1.093836 1.116871 1.015216 1.077075
33 1.045394 1.056129 1.098379 1.008529 0.968562 0.940200
33 0.995259

[CURVES]
;ID         X-Value      Y-Value     

[CONTROLS]

[RULES]

[ENERGY]
GLOBAL EFFICIENCY      75.0000
GLOBAL PRICE           0.0000
DEMAND CHARGE          0.0000

[EMITTERS]
;ID        Flow coefficient

[QUALITY]

[SOURCES]
;Node      Type       Quality    Pattern   

[REACTIONS]
;Type           Pipe/Tank               Coefficient

 ORDER BULK 1
 ORDER TANK 1
 ORDER WALL 1
 GLOBAL BULK 0.0000    
 GLOBAL WALL 0.0000    
 LIMITING POTENTIAL 0.0000    
 ROUGHNESS CORRELATION 0.0000    

[MIXING]
;Tank ID             Model Fraction

[TIMES]
DURATION             72:00:00
HYDRAULIC TIMESTEP   00:05:00
QUALITY TIMESTEP     00:05:00
PATTERN TIMESTEP     00:05:00
PATTERN START        00:00:00
REPORT TIMESTEP      00:05:00
REPORT START         00:00:00
START CLOCKTIME      00:00:00 AM
RULE TIMESTEP        00:06:00
STATISTIC            NONE      

[REPORT]
 Status             	No
 Summary            	No
 Page               	0
 Nodes					ALL
 Links					ALL
 Flow					Yes
 Headloss				No
 Velocity 				No
 Demand 				Yes
 Head 					Yes
 Pressure 				Yes
 Quality 				No
 State 					Yes

[OPTIONS]
UNITS                CMH                 
HEADLOSS             H-W                 
SPECIFIC GRAVITY     1
VISCOSITY            1
TRIALS               40
ACCURACY             0.001
CHECKFREQ            2
MAXCHECK             10
UNBALANCED           CONTINUE 10
DEMAND MULTIPLIER    1
DEMAND MODEL         PDA
MINIMUM PRESSURE     0.00
REQUIRED PRESSURE    0.10
PRESSURE EXPONENT    0.5
EMITTER EXPONENT     0.5
QUALITY              NONE                
DIFFUSIVITY          1
TOLERANCE            0.01

[COORDINATES]
;Node      X-Coord    Y-Coord   
1                4000.000000000       7000.000000000
2                5000.000000000       7000.000000000
3                4000.000000000       6000.000000000
4                5000.000000000       6000.000000000
5                4000.000000000       5000.000000000
6                5000.000000000       5000.000000000
7                6000.000000000       7000.000000000

[VERTICES]
;Link      X-Coord    Y-Coord   

[LABELS]

[BACKDROP]
DIMENSIONS    2900.000    4900.000    5100.000    7100.000
UNITS    METERS
OFFSET    0.00    0.00

[END]
