; Filename: D:/OneDrive/IHE_HI/015. Thesis/Github_repositories\Msc-Thesis/INP_FILES/Twoloops_Base_WNTR.inp
; WNTR: 0.4.2
; Created: 2023-03-07 09:37:35
[TITLE]

[JUNCTIONS]
;ID                      Elevation       Demand Pattern                 
 1                                160             100 0                          ;
 2                                150             100 0                          ;
 3                                150             270 0                          ;
 4                                155             120 0                          ;
 5                                160             200 0                          ;
 6                                165             330 0                          ;

[RESERVOIRS]
;ID                                   Head                  Pattern
 7                                210                            ;

[TANKS]
;ID                              Elevation           Init Level            Min Level            Max Level             Diameter           Min Volume Volume Curve         Overflow            

[PIPES]
;ID                   Node1                Node2                              Length             Diameter            Roughness           Minor Loss               Status
 1                    2                    1                               1000             200             130               0                 Open   ;
 2                    1                    3                               1000             150             130               0                 Open   ;
 3                    2                    4                               1000             450             130               0                 Open   ;
 4                    4                    3                               1000             150             130               0                 Open   ;
 5                    5                    3                               1000             150             130               0                 Open   ;
 6                    4                    6                               1000             400             130               0                 Open   ;
 7                    6                    5                               1000             250             130               0                 Open   ;
 8                    7                    2                               1000             450             130               0                 Open   ;

[PUMPS]
;ID                   Node1                Node2                Properties          

[VALVES]
;ID                   Node1                Node2                            Diameter Type              Setting           Minor Loss

[TAGS]
;type      name       tag       

[DEMANDS]
;ID        Demand     Pattern   

[STATUS]
;ID        Setting   

[PATTERNS]
;ID        Multipliers

0 0.963506 0.875664 0.858918 0.865106 0.820947 0.707476
0 0.737950 0.683613 0.663910 0.658091 0.633662 0.649988
0 0.618265 0.589990 0.585741 0.572584 0.588762 0.542457
0 0.545819 0.513630 0.471392 0.532117 0.530045 0.491160
0 0.545395 0.464935 0.487980 0.476668 0.502144 0.493029
0 0.460633 0.456296 0.425072 0.397246 0.415706 0.413682
0 0.419685 0.406928 0.370294 0.359501 0.337138 0.321077
0 0.307245 0.345200 0.305741 0.300368 0.286277 0.308681
0 0.280633 0.300860 0.298272 0.322167 0.320008 0.321233
0 0.347809 0.365505 0.371105 0.384644 0.378789 0.389721
0 0.389241 0.396245 0.389128 0.373725 0.403474 0.394225
0 0.376199 0.414393 0.399766 0.428105 0.457924 0.471328
0 0.522788 0.512183 0.593993 0.618905 0.668876 0.736142
0 0.806849 0.884285 0.904174 1.050756 1.098877 1.070939
0 1.271436 1.349926 1.366830 1.341923 1.334272 1.492782
0 1.443276 1.571019 1.537722 1.609253 1.591453 1.630963
0 1.600672 1.725885 1.627033 1.650367 1.749962 1.540663
0 1.545013 1.688502 1.545818 1.743091 1.585330 1.558111
0 1.723068 1.688190 1.706103 1.638336 1.520057 1.686921
0 1.542912 1.601345 1.601290 1.523903 1.560604 1.567860
0 1.522586 1.421498 1.490375 1.535201 1.402063 1.417192
0 1.384220 1.494183 1.410344 1.377346 1.295735 1.346895
0 1.264935 1.283260 1.231265 1.279056 1.255877 1.199981
0 1.211801 1.124717 1.090638 1.164104 1.136244 1.142334
0 1.204858 1.127714 1.034850 1.109732 0.995978 1.022031
0 1.029322 1.094194 0.986637 0.977520 1.002125 0.975821
0 1.045065 0.955668 0.952830 0.981814 0.980576 1.079333
0 1.041650 1.008403 0.956484 1.039971 0.965045 0.941351
0 1.047521 1.007667 1.025086 0.993605 1.005915 0.938282
0 0.914250 0.969567 0.903988 0.898961 0.898766 0.907846
0 0.887256 0.844841 0.866354 0.806903 0.905328 0.825396
0 0.842696 0.884237 0.857972 0.941527 0.844312 0.904330
0 0.898586 0.863661 0.931778 0.913656 0.956437 0.966907
0 1.026469 1.004651 0.948606 0.962808 1.024633 1.016752
0 1.025605 0.943785 1.016934 0.996335 1.046805 1.039553
0 1.090264 1.073624 1.101881 1.056225 1.043298 1.074239
0 1.099251 1.124617 1.216448 1.121563 1.088092 1.123560
0 1.126138 1.177905 1.092310 1.175629 1.188899 1.201663
0 1.171329 1.198177 1.150100 1.205248 1.212464 1.269828
0 1.200176 1.306836 1.351756 1.176814 1.311723 1.330502
0 1.266853 1.282656 1.298692 1.291371 1.291276 1.219633
0 1.366820 1.361931 1.261854 1.226527 1.328827 1.270706
0 1.307382 1.283211 1.335994 1.336691 1.263480 1.229971
0 1.220260 1.335144 1.241642 1.277144 1.271938 1.299128
0 1.199313 1.307118 1.320883 1.293863 1.267904 1.282400
0 1.290188 1.121422 1.349456 1.259931 1.196304 1.195853
0 1.223700 1.178263 1.071367 1.241639 1.121258 1.149022
0 1.050183 1.119327 1.039007 1.022507 0.926895 0.979902
0 0.963506

[CURVES]
;ID         X-Value      Y-Value     

[CONTROLS]

[RULES]

[ENERGY]
GLOBAL EFFICIENCY      75.0000
GLOBAL PRICE           0.0000
DEMAND CHARGE          0.0000

[EMITTERS]
;ID        Flow coefficient

[QUALITY]

[SOURCES]
;Node      Type       Quality    Pattern   

[REACTIONS]
;Type           Pipe/Tank               Coefficient

 ORDER BULK 1
 ORDER TANK 1
 ORDER WALL 1
 GLOBAL BULK 0.0000    
 GLOBAL WALL 0.0000    
 LIMITING POTENTIAL 0.0000    
 ROUGHNESS CORRELATION 0.0000    

[MIXING]
;Tank ID             Model Fraction

[TIMES]
DURATION             24:00:00
HYDRAULIC TIMESTEP   00:05:00
QUALITY TIMESTEP     00:05:00
PATTERN TIMESTEP     00:05:00
PATTERN START        00:00:00
REPORT TIMESTEP      00:05:00
REPORT START         00:00:00
START CLOCKTIME      00:00:00 AM
RULE TIMESTEP        00:06:00
STATISTIC            NONE      

[REPORT]
 Status             	No
 Summary            	No
 Page               	0
 Nodes					ALL
 Links					ALL
 Flow					Yes
 Headloss				No
 Velocity 				No
 Demand 				Yes
 Head 					Yes
 Pressure 				Yes
 Quality 				No
 State 					Yes

[OPTIONS]
UNITS                CMH                 
HEADLOSS             H-W                 
SPECIFIC GRAVITY     1
VISCOSITY            1
TRIALS               40
ACCURACY             0.001
CHECKFREQ            2
MAXCHECK             10
UNBALANCED           CONTINUE 10
DEMAND MULTIPLIER    1
DEMAND MODEL         PDA
MINIMUM PRESSURE     0.00
REQUIRED PRESSURE    0.10
PRESSURE EXPONENT    0.5
EMITTER EXPONENT     0.5
QUALITY              NONE                
DIFFUSIVITY          1
TOLERANCE            0.01

[COORDINATES]
;Node      X-Coord    Y-Coord   
1                4000.000000000       7000.000000000
2                5000.000000000       7000.000000000
3                4000.000000000       6000.000000000
4                5000.000000000       6000.000000000
5                4000.000000000       5000.000000000
6                5000.000000000       5000.000000000
7                6000.000000000       7000.000000000

[VERTICES]
;Link      X-Coord    Y-Coord   

[LABELS]

[BACKDROP]
DIMENSIONS    2900.000    4900.000    5100.000    7100.000
UNITS    METERS
OFFSET    0.00    0.00

[END]
