; Filename: D:/OneDrive/IHE_HI/015. Thesis/Github_repositories\Msc-Thesis/INP_FILES/Twoloops_Base_WNTR.inp
; WNTR: 0.4.2
; Created: 2023-03-07 09:41:12
[TITLE]

[JUNCTIONS]
;ID                      Elevation       Demand Pattern                 
 1                                160             100 78                         ;
 2                                150             100 78                         ;
 3                                150             270 78                         ;
 4                                155             120 78                         ;
 5                                160             200 78                         ;
 6                                165             330 78                         ;

[RESERVOIRS]
;ID                                   Head                  Pattern
 7                                210                            ;

[TANKS]
;ID                              Elevation           Init Level            Min Level            Max Level             Diameter           Min Volume Volume Curve         Overflow            

[PIPES]
;ID                   Node1                Node2                              Length             Diameter            Roughness           Minor Loss               Status
 1                    2                    1                               1000             200             130               0                 Open   ;
 2                    1                    3                               1000             150             130               0                 Open   ;
 3                    2                    4                               1000             450             130               0                 Open   ;
 4                    4                    3                               1000             150             130               0                 Open   ;
 5                    5                    3                               1000             150             130               0                 Open   ;
 6                    4                    6                               1000             400             130               0                 Open   ;
 7                    6                    5                               1000             250             130               0                 Open   ;
 8                    7                    2                               1000             450             130               0                 Open   ;

[PUMPS]
;ID                   Node1                Node2                Properties          

[VALVES]
;ID                   Node1                Node2                            Diameter Type              Setting           Minor Loss

[TAGS]
;type      name       tag       

[DEMANDS]
;ID        Demand     Pattern   

[STATUS]
;ID        Setting   

[PATTERNS]
;ID        Multipliers

78 1.027012 0.619208 0.539150 0.471709 0.344821 0.368727
78 0.538004 1.185470 1.586788 1.652557 1.517285 1.451244
78 1.166971 1.009734 1.035509 0.924025 1.007574 0.983587
78 1.127550 1.118007 1.034489 1.367976 1.389901 1.128752
78 1.063422 0.530190 0.501830 0.394010 0.336787 0.447019
78 0.506198 1.236304 1.486363 1.346458 1.458251 1.316260
78 1.208266 1.096190 0.969014 0.878234 0.824504 0.886399
78 0.949848 1.387274 1.246996 1.254440 1.169709 1.274639
78 0.783799 0.589788 0.464181 0.412381 0.287741 0.362220
78 0.498873 1.241120 1.608514 1.638716 1.423881 1.262275
78 1.040823 0.971236 0.934948 0.775708 0.912775 0.967858
78 0.956543 1.244427 1.205641 1.305402 1.375825 1.212382
78 0.982037 0.540728 0.516094 0.378086 0.279101 0.381477
78 0.487538 1.205392 1.450861 1.715306 1.555879 1.140231
78 1.230966 1.151671 1.094302 0.887045 0.822906 1.084356
78 1.064520 1.317355 1.321661 1.401570 1.337062 1.267831
78 0.900756 0.685722 0.505076 0.412864 0.345196 0.356872
78 0.449181 1.293062 1.449840 1.848784 1.450366 1.222265
78 1.269219 1.118441 1.149405 0.965235 0.837992 1.152805
78 1.076416 1.277036 1.398514 1.283879 1.363864 1.288532
78 0.927103 0.547229 0.511930 0.442444 0.283330 0.395212
78 0.482594 1.377529 1.686054 1.652155 1.407610 1.356082
78 1.040659 1.002546 0.949132 0.948703 0.941515 0.983336
78 1.134849 1.095066 1.144909 1.345697 1.317334 1.260963
78 1.071586 0.645335 0.463487 0.435745 0.268418 0.385229
78 0.497270 1.364481 1.504671 1.494216 1.488186 1.230998
78 1.199144 0.913605 0.908203 0.868477 0.864142 1.154363
78 1.183549 1.208405 1.172555 1.387814 1.195978 1.051702
78 0.985538 0.615213 0.536834 0.410199 0.320564 0.379167
78 0.458630 1.265433 1.497164 1.511738 1.445336 1.301818
78 1.068849 0.890004 0.948511 0.739915 0.945017 0.871835
78 1.002814 1.205008 1.223085 1.460474 1.165543 1.225637
78 0.897172 0.543932 0.520931 0.394511 0.318523 0.426352
78 0.586529 1.328307 1.552745 1.569359 1.631959 1.368147
78 1.156332 0.870644 0.998054 0.846862 0.920155 0.992148
78 1.180096 1.230453 1.381778 1.251492 1.201778 1.160635
78 0.898775 0.618199 0.590372 0.398648 0.277057 0.388929
78 0.481456 1.246222 1.402778 1.608098 1.518781 1.324147
78 1.047436 0.980966 0.886075 0.864481 0.860914 1.033284
78 0.998256 1.274995 1.455426 1.084722 1.344331 1.264983
78 0.854105 0.580931 0.494685 0.390471 0.292584 0.346368
78 0.546093 1.303643 1.495889 1.412298 1.562528 1.240118
78 1.112492 0.974454 1.055323 0.950022 0.847757 0.889331
78 0.960701 1.258596 1.176359 1.247291 1.237983 1.194954
78 0.760588 0.609061 0.520956 0.402830 0.292539 0.403117
78 0.515962 0.933831 1.850357 1.649932 1.421711 1.259341
78 1.143449 0.990712 0.837545 1.048643 0.892041 1.081614
78 1.039100 1.347492 1.329780 1.363320 1.191294 1.316270
78 0.949667 0.662489 0.474876 0.384607 0.355294 0.366079
78 0.494562 1.309142 1.612509 1.674618 1.452066 1.338486
78 0.985026 1.132650 0.990547 0.851027 0.947980 0.963142
78 0.982585 1.070715 1.372152 1.283404 1.286095 1.303463
78 0.818869 0.564927 0.484605 0.403019 0.298988 0.390820
78 0.497535 1.189699 1.507891 1.495937 1.532942 1.207345
78 0.998153 0.975017 0.987387 1.062484 0.849262 1.075461
78 1.165753 1.085861 1.380418 1.176876 1.023446 1.258207
78 0.773576 0.621645 0.472640 0.453106 0.325644 0.385492
78 0.472486 1.083449 1.543562 1.564114 1.456237 1.316297
78 1.150910 1.027972 0.938868 0.796479 0.998246 0.944844
78 1.042598 1.149966 1.108321 1.250291 1.250116 1.259554
78 0.950289 0.600181 0.537274 0.410879 0.299624 0.405150
78 0.492374 1.162094 1.565730 1.455615 1.533653 1.196715
78 1.174064 0.980043 1.003960 0.935556 0.946319 0.874350
78 1.081792 1.284497 1.123397 1.340277 1.065421 1.101839
78 0.902781 0.520478 0.460580 0.352901 0.339555 0.405255
78 0.522692 1.178623 1.554761 1.393091 1.464980 1.220805
78 1.175497 1.091288 1.117326 0.961384 0.856897 0.910728
78 1.167466 1.234204 1.116072 1.336970 1.384710 1.205657
78 0.886676 0.561233 0.442139 0.425610 0.292581 0.392529
78 0.569309 1.265712 1.647466 1.618184 1.682399 1.478837
78 1.181796 1.046578 0.832432 0.908908 0.890632 1.007516
78 1.182988 0.936991 1.240792 1.328070 1.251448 1.063977
78 0.962565 0.613290 0.461156 0.410074 0.319718 0.400169
78 0.532023 1.207513 1.549411 1.451594 1.489688 1.320206
78 1.177073 0.990791 1.036593 0.830548 0.843651 0.991169
78 1.007193 1.278744 1.348166 1.329026 1.335246 1.394020
78 0.866242 0.494331 0.507972 0.398381 0.287580 0.368677
78 0.482432 1.217408 1.535639 1.908794 1.384739 1.217516
78 0.898601 1.020119 0.838687 0.861159 0.880152 0.943222
78 1.253021 1.295462 1.437190 1.208228 1.417374 1.247616
78 0.955541 0.649413 0.463649 0.386422 0.320702 0.315020
78 0.560533 1.253101 1.594150 1.628225 1.376408 1.263606
78 1.196825 1.103842 1.215698 0.894677 0.852584 0.958861
78 1.010412 1.192526 1.339804 1.296439 1.414020 1.177515
78 0.874984 0.572099 0.434695 0.349831 0.271700 0.441646
78 0.535810 1.331997 1.429477 1.348016 1.420793 1.318285
78 1.143885 1.083838 1.022742 1.025472 0.883972 0.926954
78 0.952053 1.114659 1.325180 1.207573 1.397421 1.335583
78 0.729390 0.641475 0.410416 0.412848 0.329397 0.402075
78 0.448812 1.143799 1.566509 1.576673 1.475652 1.288572
78 1.118786 0.903314 0.980638 1.009315 0.872306 0.964493
78 1.194881 0.954318 1.422863 1.234282 1.317049 1.209247
78 0.967858 0.587155 0.472879 0.441531 0.243260 0.400651
78 0.446083 1.126889 1.857441 1.594292 1.523408 1.114717
78 1.035844 1.015725 1.028381 0.944416 0.900621 1.042160
78 1.139933 1.024345 1.303849 1.379862 1.361348 1.165070
78 0.841995 0.546321 0.494758 0.436259 0.253157 0.378883
78 0.454408 1.275356 1.529048 1.539758 1.473966 1.346321
78 1.065470 0.756309 1.043465 0.931611 0.884193 0.913277
78 1.130957 1.236407 1.251117 1.277460 1.203264 1.182855
78 0.788369 0.620031 0.462225 0.407619 0.266257 0.381118
78 0.495580 1.040573 1.614739 1.551469 1.290917 1.164463
78 1.153251 1.071644 0.989447 0.929143 0.916117 1.026370
78 1.213167 1.055328 1.370352 1.260271 1.276677 1.170984
78 0.872989 0.541143 0.507334 0.453470 0.298653 0.399956
78 0.472508 1.188722 1.659669 1.552609 1.445544 1.341940
78 1.019216 1.020200 1.065626 0.997916 0.893492 1.109408
78 1.191028 1.104364 1.173334 1.268284 1.407009 1.193060
78 0.856753 0.674508 0.511476 0.325741 0.307612 0.416641
78 0.509024 1.243172 1.591389 1.431245 1.455516 1.201656
78 1.017919 0.898955 1.036199 0.907049 0.867732 0.948053
78 1.097939 1.303603 1.091562 1.339195 1.243246 1.019080
78 1.027012

[CURVES]
;ID         X-Value      Y-Value     

[CONTROLS]

[RULES]

[ENERGY]
GLOBAL EFFICIENCY      75.0000
GLOBAL PRICE           0.0000
DEMAND CHARGE          0.0000

[EMITTERS]
;ID        Flow coefficient

[QUALITY]

[SOURCES]
;Node      Type       Quality    Pattern   

[REACTIONS]
;Type           Pipe/Tank               Coefficient

 ORDER BULK 1
 ORDER TANK 1
 ORDER WALL 1
 GLOBAL BULK 0.0000    
 GLOBAL WALL 0.0000    
 LIMITING POTENTIAL 0.0000    
 ROUGHNESS CORRELATION 0.0000    

[MIXING]
;Tank ID             Model Fraction

[TIMES]
DURATION             672:00:00
HYDRAULIC TIMESTEP   01:00:00
QUALITY TIMESTEP     00:05:00
PATTERN TIMESTEP     01:00:00
PATTERN START        00:00:00
REPORT TIMESTEP      01:00:00
REPORT START         00:00:00
START CLOCKTIME      00:00:00 AM
RULE TIMESTEP        00:06:00
STATISTIC            NONE      

[REPORT]
 Status             	No
 Summary            	No
 Page               	0
 Nodes					ALL
 Links					ALL
 Flow					Yes
 Headloss				No
 Velocity 				No
 Demand 				Yes
 Head 					Yes
 Pressure 				Yes
 Quality 				No
 State 					Yes

[OPTIONS]
UNITS                CMH                 
HEADLOSS             H-W                 
SPECIFIC GRAVITY     1
VISCOSITY            1
TRIALS               40
ACCURACY             0.001
CHECKFREQ            2
MAXCHECK             10
UNBALANCED           CONTINUE 10
DEMAND MULTIPLIER    1
DEMAND MODEL         PDA
MINIMUM PRESSURE     0.00
REQUIRED PRESSURE    0.10
PRESSURE EXPONENT    0.5
EMITTER EXPONENT     0.5
QUALITY              NONE                
DIFFUSIVITY          1
TOLERANCE            0.01

[COORDINATES]
;Node      X-Coord    Y-Coord   
1                4000.000000000       7000.000000000
2                5000.000000000       7000.000000000
3                4000.000000000       6000.000000000
4                5000.000000000       6000.000000000
5                4000.000000000       5000.000000000
6                5000.000000000       5000.000000000
7                6000.000000000       7000.000000000

[VERTICES]
;Link      X-Coord    Y-Coord   

[LABELS]

[BACKDROP]
DIMENSIONS    2900.000    4900.000    5100.000    7100.000
UNITS    METERS
OFFSET    0.00    0.00

[END]
