; Filename: D:/OneDrive/IHE_HI/015. Thesis/Github_repositories\Msc-Thesis/INP_FILES/Twoloops_Base_WNTR.inp
; WNTR: 0.4.2
; Created: 2023-03-07 09:37:36
[TITLE]

[JUNCTIONS]
;ID                      Elevation       Demand Pattern                 
 1                                160             100 1                          ;
 2                                150             100 1                          ;
 3                                150             270 1                          ;
 4                                155             120 1                          ;
 5                                160             200 1                          ;
 6                                165             330 1                          ;

[RESERVOIRS]
;ID                                   Head                  Pattern
 7                                210                            ;

[TANKS]
;ID                              Elevation           Init Level            Min Level            Max Level             Diameter           Min Volume Volume Curve         Overflow            

[PIPES]
;ID                   Node1                Node2                              Length             Diameter            Roughness           Minor Loss               Status
 1                    2                    1                               1000             200             130               0                 Open   ;
 2                    1                    3                               1000             150             130               0                 Open   ;
 3                    2                    4                               1000             450             130               0                 Open   ;
 4                    4                    3                               1000             150             130               0                 Open   ;
 5                    5                    3                               1000             150             130               0                 Open   ;
 6                    4                    6                               1000             400             130               0                 Open   ;
 7                    6                    5                               1000             250             130               0                 Open   ;
 8                    7                    2                               1000             450             130               0                 Open   ;

[PUMPS]
;ID                   Node1                Node2                Properties          

[VALVES]
;ID                   Node1                Node2                            Diameter Type              Setting           Minor Loss

[TAGS]
;type      name       tag       

[DEMANDS]
;ID        Demand     Pattern   

[STATUS]
;ID        Setting   

[PATTERNS]
;ID        Multipliers

1 0.995259 0.882561 0.875098 0.900688 0.849479 0.693085
1 0.751459 0.681531 0.662533 0.663408 0.635477 0.667854
1 0.627397 0.591419 0.590851 0.576355 0.605363 0.540213
1 0.549194 0.504546 0.444586 0.538896 0.538903 0.483647
1 0.568093 0.450576 0.488426 0.474870 0.516648 0.506714
1 0.462051 0.459696 0.417247 0.380154 0.412772 0.414967
1 0.429527 0.416265 0.367380 0.357300 0.329758 0.311409
1 0.295992 0.357693 0.302560 0.297689 0.278726 0.313336
1 0.270950 0.299569 0.292731 0.324622 0.316670 0.313272
1 0.347613 0.368583 0.371598 0.386943 0.373858 0.386852
1 0.383861 0.393354 0.382587 0.359865 0.404896 0.391005
1 0.363078 0.418159 0.392239 0.428549 0.464412 0.472538
1 0.534182 0.498876 0.598697 0.610189 0.656806 0.727418
1 0.801758 0.885276 0.882074 1.069029 1.108924 1.035880
1 1.307154 1.397504 1.397603 1.337059 1.304420 1.522990
1 1.431448 1.607639 1.544075 1.639504 1.602637 1.653377
1 1.601008 1.783419 1.631142 1.663426 1.811254 1.496768
1 1.503653 1.720016 1.507763 1.805961 1.571995 1.534101
1 1.784602 1.735383 1.765398 1.666986 1.492941 1.746790
1 1.534552 1.626246 1.630520 1.519149 1.579311 1.595749
1 1.533878 1.388805 1.499160 1.573875 1.382030 1.412926
1 1.371960 1.545640 1.428811 1.388390 1.275149 1.361114
1 1.247402 1.284076 1.215198 1.295904 1.270033 1.194940
1 1.221249 1.099005 1.056046 1.174157 1.140007 1.156483
1 1.257288 1.148240 1.015241 1.133463 0.968309 1.012418
1 1.027913 1.129284 0.971490 0.960811 1.000144 0.962519
1 1.067598 0.934095 0.929911 0.973064 0.970610 1.118001
1 1.060706 1.010163 0.931833 1.056959 0.944936 0.910352
1 1.071282 1.013975 1.043295 0.999859 1.022582 0.925738
1 0.894523 0.982433 0.888980 0.886212 0.890426 0.908163
1 0.880884 0.820257 0.854907 0.767519 0.916373 0.797138
1 0.823223 0.885157 0.844894 0.968894 0.821290 0.909109
1 0.897879 0.842495 0.941329 0.910499 0.970758 0.982324
1 1.067342 1.030143 0.941497 0.958153 1.046218 1.029737
1 1.038408 0.911153 1.016439 0.981181 1.052600 1.037504
1 1.109414 1.080350 1.118682 1.046185 1.022818 1.065283
1 1.098877 1.133017 1.266859 1.120614 1.066462 1.115676
1 1.115499 1.189033 1.056439 1.177112 1.192597 1.207191
1 1.156993 1.192421 1.115365 1.193117 1.199008 1.280221
1 1.171078 1.326636 1.389881 1.123696 1.322718 1.348040
1 1.250280 1.272300 1.295222 1.283587 1.283196 1.175813
1 1.396933 1.390121 1.240637 1.188313 1.342393 1.255728
1 1.311072 1.274909 1.353975 1.354762 1.244597 1.193948
1 1.179017 1.351055 1.210645 1.263931 1.256398 1.297759
1 1.148970 1.312016 1.334439 1.296143 1.259921 1.284889
1 1.300323 1.051480 1.398414 1.269610 1.180276 1.186354
1 1.235549 1.175514 1.024008 1.288996 1.118768 1.171547
1 1.035234 1.151730 1.044890 1.034662 0.906673 1.002541
1 0.995259

[CURVES]
;ID         X-Value      Y-Value     

[CONTROLS]

[RULES]

[ENERGY]
GLOBAL EFFICIENCY      75.0000
GLOBAL PRICE           0.0000
DEMAND CHARGE          0.0000

[EMITTERS]
;ID        Flow coefficient

[QUALITY]

[SOURCES]
;Node      Type       Quality    Pattern   

[REACTIONS]
;Type           Pipe/Tank               Coefficient

 ORDER BULK 1
 ORDER TANK 1
 ORDER WALL 1
 GLOBAL BULK 0.0000    
 GLOBAL WALL 0.0000    
 LIMITING POTENTIAL 0.0000    
 ROUGHNESS CORRELATION 0.0000    

[MIXING]
;Tank ID             Model Fraction

[TIMES]
DURATION             24:00:00
HYDRAULIC TIMESTEP   00:05:00
QUALITY TIMESTEP     00:05:00
PATTERN TIMESTEP     00:05:00
PATTERN START        00:00:00
REPORT TIMESTEP      00:05:00
REPORT START         00:00:00
START CLOCKTIME      00:00:00 AM
RULE TIMESTEP        00:06:00
STATISTIC            NONE      

[REPORT]
 Status             	No
 Summary            	No
 Page               	0
 Nodes					ALL
 Links					ALL
 Flow					Yes
 Headloss				No
 Velocity 				No
 Demand 				Yes
 Head 					Yes
 Pressure 				Yes
 Quality 				No
 State 					Yes

[OPTIONS]
UNITS                CMH                 
HEADLOSS             H-W                 
SPECIFIC GRAVITY     1
VISCOSITY            1
TRIALS               40
ACCURACY             0.001
CHECKFREQ            2
MAXCHECK             10
UNBALANCED           CONTINUE 10
DEMAND MULTIPLIER    1
DEMAND MODEL         PDA
MINIMUM PRESSURE     0.00
REQUIRED PRESSURE    0.10
PRESSURE EXPONENT    0.5
EMITTER EXPONENT     0.5
QUALITY              NONE                
DIFFUSIVITY          1
TOLERANCE            0.01

[COORDINATES]
;Node      X-Coord    Y-Coord   
1                4000.000000000       7000.000000000
2                5000.000000000       7000.000000000
3                4000.000000000       6000.000000000
4                5000.000000000       6000.000000000
5                4000.000000000       5000.000000000
6                5000.000000000       5000.000000000
7                6000.000000000       7000.000000000

[VERTICES]
;Link      X-Coord    Y-Coord   

[LABELS]

[BACKDROP]
DIMENSIONS    2900.000    4900.000    5100.000    7100.000
UNITS    METERS
OFFSET    0.00    0.00

[END]
