; Filename: D:/OneDrive/IHE_HI/015. Thesis/Github_repositories\Msc-Thesis/INP_FILES/Twoloops_Base_WNTR.inp
; WNTR: 0.4.2
; Created: 2023-03-07 09:38:41
[TITLE]

[JUNCTIONS]
;ID                      Elevation       Demand Pattern                 
 1                                160             100 54                         ;
 2                                150             100 54                         ;
 3                                150             270 54                         ;
 4                                155             120 54                         ;
 5                                160             200 54                         ;
 6                                165             330 54                         ;

[RESERVOIRS]
;ID                                   Head                  Pattern
 7                                210                            ;

[TANKS]
;ID                              Elevation           Init Level            Min Level            Max Level             Diameter           Min Volume Volume Curve         Overflow            

[PIPES]
;ID                   Node1                Node2                              Length             Diameter            Roughness           Minor Loss               Status
 1                    2                    1                               1000             200             130               0                 Open   ;
 2                    1                    3                               1000             150             130               0                 Open   ;
 3                    2                    4                               1000             450             130               0                 Open   ;
 4                    4                    3                               1000             150             130               0                 Open   ;
 5                    5                    3                               1000             150             130               0                 Open   ;
 6                    4                    6                               1000             400             130               0                 Open   ;
 7                    6                    5                               1000             250             130               0                 Open   ;
 8                    7                    2                               1000             450             130               0                 Open   ;

[PUMPS]
;ID                   Node1                Node2                Properties          

[VALVES]
;ID                   Node1                Node2                            Diameter Type              Setting           Minor Loss

[TAGS]
;type      name       tag       

[DEMANDS]
;ID        Demand     Pattern   

[STATUS]
;ID        Setting   

[PATTERNS]
;ID        Multipliers

54 1.027012 0.819356 0.766597 0.763528 0.689643 0.520866
54 0.580041 0.512281 0.495871 0.496040 0.463071 0.481622
54 0.424353 0.367443 0.341460 0.313886 0.335858 0.312050
54 0.356923 0.354078 0.318304 0.422437 0.430273 0.401852
54 0.590790 0.562298 0.820022 0.999024 1.347147 1.510535
54 1.485118 1.595605 1.486363 1.366865 1.582429 1.637580
54 1.757477 1.733117 1.511304 1.496326 1.374174 1.292240
54 1.216445 1.566762 1.246996 1.201715 1.073348 1.215153
54 0.957977 1.044190 0.958199 1.042230 0.959136 0.904929
54 1.001277 1.040466 1.005321 1.004838 0.905308 0.897632
54 0.851583 0.860195 0.824291 0.764325 0.912775 0.890398
54 0.821516 1.008106 0.927416 1.030909 1.113324 1.087412
54 1.200267 1.012480 1.184348 1.108417 1.116403 1.172573
54 1.227008 1.288814 1.178824 1.401125 1.355270 1.142822
54 1.454778 1.497805 1.425599 1.284808 1.188642 1.398064
54 1.228958 1.361896 1.219994 1.236537 1.110875 1.054621
54 0.900756 0.907370 0.718150 0.668279 0.690391 0.504119
54 0.484278 0.558775 0.453075 0.554940 0.442647 0.405631
54 0.461534 0.407002 0.379017 0.327885 0.279331 0.365736
54 0.340736 0.404443 0.430312 0.396467 0.422212 0.458736
54 0.515057 0.580368 0.836525 1.121830 1.133321 1.335470
54 1.415866 1.777874 1.686054 1.677196 1.527476 1.687123
54 1.513685 1.585062 1.480297 1.616391 1.569191 1.433560
54 1.453371 1.236747 1.144909 1.289136 1.208811 1.202116
54 1.309717 1.142532 0.956766 1.101278 0.894727 0.962413
54 0.998061 1.143883 0.940420 0.916232 0.946193 0.875391
54 0.981118 0.809154 0.800711 0.855733 0.864142 1.061977
54 1.016478 0.978925 0.901965 1.095991 0.967790 0.943294
54 1.204547 1.151948 1.231944 1.202562 1.282256 1.165474
54 1.154255 1.353011 1.216445 1.234843 1.258980 1.304776
54 1.263185 1.157494 1.235669 1.071702 1.365024 1.124060
54 1.157720 1.245751 1.129002 1.288504 0.968371 1.019523
54 0.897172 0.719749 0.740693 0.638572 0.637046 0.602268
54 0.632359 0.574005 0.485233 0.471067 0.498069 0.454045
54 0.420484 0.316828 0.329109 0.287674 0.306718 0.314766
54 0.373556 0.389690 0.425162 0.386466 0.372035 0.413203
54 0.499319 0.655637 0.964705 1.010783 1.108229 1.314239
54 1.412529 1.608406 1.402778 1.632470 1.648114 1.647392
54 1.523544 1.550943 1.381951 1.472894 1.434857 1.506377
54 1.278440 1.439955 1.455426 1.039130 1.233584 1.205948
54 1.043906 1.028508 1.021167 0.986856 0.975279 0.865326
54 1.096052 1.092881 0.934931 0.866001 0.993460 0.881876
54 0.910221 0.863045 0.930418 0.936082 0.847757 0.818156
54 0.825088 1.019585 0.904891 0.985017 1.001781 1.071779
54 0.929607 1.140429 1.195505 1.180956 1.170155 1.239090
54 1.298544 0.998459 1.503415 1.347725 1.238401 1.262203
54 1.351349 1.288469 1.091109 1.518868 1.288504 1.394528
54 1.199610 1.393053 1.227489 1.202790 0.989765 1.094914
54 0.949667 0.876627 0.675210 0.622542 0.710588 0.517126
54 0.533205 0.565723 0.503909 0.502662 0.443166 0.444201
54 0.358191 0.412173 0.326634 0.289089 0.315993 0.305564
54 0.311035 0.339101 0.422201 0.396321 0.398137 0.464051
54 0.454927 0.599139 0.791874 1.021867 1.195952 1.320629
54 1.459702 1.535455 1.507891 1.518610 1.663481 1.502077
54 1.451859 1.541537 1.539959 1.810249 1.415436 1.567865
54 1.492948 1.226351 1.380418 1.127411 0.939134 1.199488
54 0.945482 1.100590 0.975659 1.145156 1.085481 0.963069
54 0.948317 0.908286 0.964726 0.959093 0.925880 0.936049
54 0.941654 0.910445 0.827747 0.784792 0.998246 0.869227
54 0.895424 0.931583 0.852554 0.987386 1.011599 1.129721
54 1.161464 1.123801 1.232953 1.204554 1.198495 1.245338
54 1.239179 1.242520 1.272156 1.188999 1.335909 1.199435
54 1.387530 1.274594 1.307905 1.355071 1.366905 1.127302
54 1.248898 1.327928 1.036982 1.182461 0.885187 0.916544
54 0.902781 0.688714 0.654881 0.571221 0.679110 0.572466
54 0.563533 0.509322 0.485863 0.418157 0.447107 0.405146
54 0.427454 0.397121 0.368439 0.326577 0.285632 0.288935
54 0.369558 0.390878 0.343407 0.412862 0.428665 0.429231
54 0.492598 0.595221 0.722482 1.079145 1.170325 1.326405
54 1.670277 1.633560 1.647466 1.642710 1.825665 1.839845
54 1.718977 1.654678 1.298287 1.548588 1.484387 1.468812
54 1.515022 1.058220 1.240792 1.272250 1.148353 1.014323
54 1.176469 1.085798 0.951954 1.036400 1.065727 0.999738
54 1.067811 1.012292 0.968382 0.890097 0.947148 0.938829
54 0.963060 0.877515 0.913905 0.818361 0.843651 0.911844
54 0.865016 1.035906 1.037050 1.049565 1.080487 1.250327
54 1.058740 0.925603 1.165710 1.167914 1.150318 1.133231
54 1.214159 1.301663 1.247707 1.559173 1.206196 1.220283
54 1.061984 1.326714 1.092597 1.247314 1.271330 1.216099
54 1.446576 1.339263 1.326637 1.065961 1.177600 1.037806
54 0.955541 0.859325 0.659246 0.625479 0.641405 0.445000
54 0.604331 0.541506 0.498172 0.488736 0.420075 0.419351
54 0.435209 0.401689 0.400877 0.303917 0.284195 0.304206
54 0.319843 0.377679 0.412247 0.400346 0.437739 0.419212
54 0.486102 0.606745 0.710318 0.887008 1.086801 1.492377
54 1.571997 1.719108 1.429477 1.368447 1.541782 1.640099
54 1.663832 1.713587 1.595101 1.747189 1.473287 1.351363
54 1.219269 1.258875 1.325180 1.156818 1.282301 1.273254
54 0.891476 1.135697 0.847212 1.043411 1.097990 1.004500
54 0.900802 0.958879 0.979068 0.966793 0.938224 0.916333
54 0.915371 0.800039 0.864573 0.994504 0.872306 0.887303
54 1.026211 0.773090 1.094510 0.974743 1.065761 1.084599
54 1.182937 1.099412 1.085177 1.294416 0.973039 1.231509
54 1.122677 1.204878 1.509171 1.302276 1.326985 1.117251
54 1.224179 1.321000 1.339720 1.367904 1.300897 1.343660
54 1.316019 1.058979 1.203553 1.217385 1.131052 0.969141
54 0.841995 0.722910 0.703478 0.706147 0.506313 0.535213
54 0.489914 0.551124 0.477828 0.462182 0.449850 0.446801
54 0.387444 0.275221 0.344083 0.316463 0.294731 0.289744
54 0.358001 0.391576 0.384959 0.394485 0.372495 0.421113
54 0.437983 0.657580 0.755305 1.033530 1.065028 1.287846
54 1.453967 1.342989 1.614739 1.574984 1.400846 1.448726
54 1.677455 1.694309 1.543173 1.583064 1.526861 1.496297
54 1.553670 1.191868 1.370352 1.207301 1.171503 1.116336
54 1.066987 0.958065 1.047277 1.146077 0.995509 0.999204
54 0.948361 0.996540 1.037293 0.952038 0.919081 0.954283
54 0.833904 0.903561 0.939502 0.983273 0.893492 1.020620
54 1.022901 0.894641 0.902565 1.001595 1.138558 1.070082
54 1.047142 1.262973 1.173751 0.954960 1.230447 1.280661
54 1.281084 1.329209 1.293003 1.169094 1.267846 1.204387
54 1.202995 1.169134 1.349905 1.313780 1.253391 1.222328
54 1.267538 1.347679 1.007595 1.181506 1.032929 0.847702
54 1.027012

[CURVES]
;ID         X-Value      Y-Value     

[CONTROLS]

[RULES]

[ENERGY]
GLOBAL EFFICIENCY      75.0000
GLOBAL PRICE           0.0000
DEMAND CHARGE          0.0000

[EMITTERS]
;ID        Flow coefficient

[QUALITY]

[SOURCES]
;Node      Type       Quality    Pattern   

[REACTIONS]
;Type           Pipe/Tank               Coefficient

 ORDER BULK 1
 ORDER TANK 1
 ORDER WALL 1
 GLOBAL BULK 0.0000    
 GLOBAL WALL 0.0000    
 LIMITING POTENTIAL 0.0000    
 ROUGHNESS CORRELATION 0.0000    

[MIXING]
;Tank ID             Model Fraction

[TIMES]
DURATION             168:00:00
HYDRAULIC TIMESTEP   00:15:00
QUALITY TIMESTEP     00:05:00
PATTERN TIMESTEP     00:15:00
PATTERN START        00:00:00
REPORT TIMESTEP      00:15:00
REPORT START         00:00:00
START CLOCKTIME      00:00:00 AM
RULE TIMESTEP        00:06:00
STATISTIC            NONE      

[REPORT]
 Status             	No
 Summary            	No
 Page               	0
 Nodes					ALL
 Links					ALL
 Flow					Yes
 Headloss				No
 Velocity 				No
 Demand 				Yes
 Head 					Yes
 Pressure 				Yes
 Quality 				No
 State 					Yes

[OPTIONS]
UNITS                CMH                 
HEADLOSS             H-W                 
SPECIFIC GRAVITY     1
VISCOSITY            1
TRIALS               40
ACCURACY             0.001
CHECKFREQ            2
MAXCHECK             10
UNBALANCED           CONTINUE 10
DEMAND MULTIPLIER    1
DEMAND MODEL         PDA
MINIMUM PRESSURE     0.00
REQUIRED PRESSURE    0.10
PRESSURE EXPONENT    0.5
EMITTER EXPONENT     0.5
QUALITY              NONE                
DIFFUSIVITY          1
TOLERANCE            0.01

[COORDINATES]
;Node      X-Coord    Y-Coord   
1                4000.000000000       7000.000000000
2                5000.000000000       7000.000000000
3                4000.000000000       6000.000000000
4                5000.000000000       6000.000000000
5                4000.000000000       5000.000000000
6                5000.000000000       5000.000000000
7                6000.000000000       7000.000000000

[VERTICES]
;Link      X-Coord    Y-Coord   

[LABELS]

[BACKDROP]
DIMENSIONS    2900.000    4900.000    5100.000    7100.000
UNITS    METERS
OFFSET    0.00    0.00

[END]
