; Filename: D:/OneDrive/IHE_HI/015. Thesis/Github_repositories\Msc-Thesis/INP_FILES/Twoloops_Base_WNTR.inp
; WNTR: 0.4.2
; Created: 2023-03-07 09:38:31
[TITLE]

[JUNCTIONS]
;ID                      Elevation       Demand Pattern                 
 1                                160             100 51                         ;
 2                                150             100 51                         ;
 3                                150             270 51                         ;
 4                                155             120 51                         ;
 5                                160             200 51                         ;
 6                                165             330 51                         ;

[RESERVOIRS]
;ID                                   Head                  Pattern
 7                                210                            ;

[TANKS]
;ID                              Elevation           Init Level            Min Level            Max Level             Diameter           Min Volume Volume Curve         Overflow            

[PIPES]
;ID                   Node1                Node2                              Length             Diameter            Roughness           Minor Loss               Status
 1                    2                    1                               1000             200             130               0                 Open   ;
 2                    1                    3                               1000             150             130               0                 Open   ;
 3                    2                    4                               1000             450             130               0                 Open   ;
 4                    4                    3                               1000             150             130               0                 Open   ;
 5                    5                    3                               1000             150             130               0                 Open   ;
 6                    4                    6                               1000             400             130               0                 Open   ;
 7                    6                    5                               1000             250             130               0                 Open   ;
 8                    7                    2                               1000             450             130               0                 Open   ;

[PUMPS]
;ID                   Node1                Node2                Properties          

[VALVES]
;ID                   Node1                Node2                            Diameter Type              Setting           Minor Loss

[TAGS]
;type      name       tag       

[DEMANDS]
;ID        Demand     Pattern   

[STATUS]
;ID        Setting   

[PATTERNS]
;ID        Multipliers

51 1.058765 0.896357 0.907457 0.971854 0.906543 0.664304
51 0.778477 0.677367 0.659781 0.674042 0.639107 0.703586
51 0.645662 0.594276 0.601069 0.583897 0.638565 0.535724
51 0.555945 0.486378 0.390972 0.552454 0.556618 0.468620
51 0.613488 0.421858 0.489318 0.471274 0.545657 0.534083
51 0.464889 0.466495 0.401596 0.345972 0.406906 0.417538
51 0.449212 0.434938 0.361553 0.352900 0.314999 0.292074
51 0.273486 0.382680 0.296198 0.292332 0.263623 0.322646
51 0.251583 0.296987 0.281651 0.329532 0.309996 0.297350
51 0.347221 0.374740 0.372583 0.391541 0.363997 0.381114
51 0.373102 0.387572 0.369505 0.332145 0.407739 0.384566
51 0.336836 0.425690 0.377184 0.429436 0.477388 0.474957
51 0.556970 0.472264 0.608105 0.592758 0.632667 0.709969
51 0.791576 0.887258 0.837874 1.105574 1.129018 0.965763
51 1.378590 1.492660 1.459149 1.327331 1.244716 1.583404
51 1.407790 1.680877 1.556780 1.700007 1.625003 1.698206
51 1.601680 1.898488 1.639360 1.689543 1.933838 1.408978
51 1.420933 1.783045 1.431654 1.931702 1.545325 1.486081
51 1.907671 1.829769 1.883989 1.724285 1.438708 1.866527
51 1.517833 1.676048 1.688978 1.509641 1.616726 1.651528
51 1.556464 1.323417 1.516730 1.651222 1.341963 1.404392
51 1.347439 1.648553 1.465744 1.410479 1.233976 1.389554
51 1.212337 1.285707 1.183065 1.329600 1.298345 1.184858
51 1.240145 1.047582 0.986863 1.194264 1.147532 1.184781
51 1.362146 1.189293 0.976024 1.180926 0.912972 0.993193
51 1.025095 1.199463 0.941195 0.927392 0.996182 0.935916
51 1.112664 0.890949 0.884074 0.955563 0.950679 1.195336
51 1.098817 1.013682 0.882532 1.090936 0.904717 0.848355
51 1.118803 1.026590 1.079712 1.012368 1.055916 0.900651
51 0.855068 1.008165 0.858965 0.860713 0.873745 0.908797
51 0.868141 0.771088 0.832014 0.688751 0.938462 0.740623
51 0.784276 0.886999 0.818740 1.023627 0.775246 0.918667
51 0.896465 0.800164 0.960433 0.904187 0.999401 1.013158
51 1.149089 1.081127 0.927278 0.948845 1.089389 1.055706
51 1.064013 0.845889 1.015449 0.950873 1.064191 1.033407
51 1.147713 1.093802 1.152283 1.026105 0.981857 1.047369
51 1.098128 1.149819 1.367681 1.118715 1.023201 1.099908
51 1.094222 1.211290 0.984696 1.180080 1.199993 1.218249
51 1.128322 1.180909 1.045896 1.168855 1.172096 1.301008
51 1.112882 1.366234 1.466130 1.017460 1.344709 1.383115
51 1.217133 1.251589 1.288282 1.268019 1.267035 1.088173
51 1.457158 1.446501 1.198202 1.111886 1.369523 1.225772
51 1.318454 1.258307 1.389936 1.390905 1.206829 1.121901
51 1.096530 1.382876 1.148652 1.237504 1.225318 1.295022
51 1.048284 1.321812 1.361551 1.300703 1.243956 1.289865
51 1.320593 0.911597 1.496330 1.288968 1.148220 1.167356
51 1.259249 1.170017 0.929290 1.383709 1.113788 1.216596
51 1.005335 1.216535 1.056656 1.058972 0.866228 1.047820
51 0.962084 0.974070 0.774643 0.755750 0.939876 0.658213
51 0.701267 0.765970 0.673177 0.685201 0.604866 0.636987
51 0.521608 0.684487 0.568723 0.526610 0.592582 0.521747
51 0.467143 0.460180 0.561429 0.510285 0.505480 0.560741
51 0.443659 0.457583 0.468342 0.484795 0.471140 0.452301
51 0.454974 0.444674 0.409008 0.396354 0.433145 0.374484
51 0.353706 0.376130 0.370191 0.446023 0.327099 0.372523
51 0.354389 0.282142 0.336238 0.269531 0.221238 0.317522
51 0.247323 0.317125 0.288192 0.369908 0.361589 0.321869
51 0.324251 0.315720 0.353801 0.369391 0.374476 0.401656
51 0.423141 0.416084 0.371476 0.343726 0.455299 0.373040
51 0.376191 0.385656 0.338366 0.406797 0.423605 0.497998
51 0.534923 0.538999 0.639059 0.657969 0.691928 0.765718
51 0.801454 0.847465 0.922983 0.899807 1.109037 1.027736
51 1.300996 1.223469 1.311745 1.418400 1.483652 1.207397
51 1.436582 1.629613 1.266053 1.608730 1.215169 1.423951
51 1.606181 1.343950 1.459279 1.385187 1.895592 1.655198
51 1.720073 1.589277 1.564602 1.355910 1.564956 1.483826
51 1.737268 1.775673 1.820333 1.715828 1.480044 1.392303
51 1.679203 1.606824 1.269977 1.587921 1.647257 1.520992
51 1.472242 1.366798 1.259759 1.574526 1.397551 1.392440
51 1.652836 1.486503 1.424340 1.374510 1.540116 1.545176
51 1.420836 1.356247 0.998766 1.260768 1.211593 1.221432
51 1.305401 0.853916 1.093792 1.174875 1.076025 0.956188
51 1.195586 1.116747 0.969764 1.095711 1.137690 1.041807
51 1.114768 1.032029 0.976740 0.893729 0.997442 1.021901
51 1.087583 0.987317 1.044348 0.902920 0.922205 0.990937
51 0.897703 1.087309 1.052366 1.034071 1.039333 1.206130
51 0.953114 0.775997 1.008374 0.976133 0.922249 0.869072
51 0.911819 0.960949 0.887040 1.147481 0.827518 0.835259
51 0.694024 0.916493 0.709939 0.837893 0.858891 0.819319
51 1.034950 0.970141 1.000755 0.808541 0.990841 0.939153
51 0.969427 0.999258 0.829734 0.880933 1.007825 0.687487
51 1.087690 1.006417 0.958424 0.993552 0.880378 0.956111
51 1.110028 1.140025 1.292380 1.019053 0.967039 0.989982
51 0.944871 1.051917 1.109167 1.072620 1.203131 1.066573
51 1.061780 1.043422 0.933485 0.947329 0.997948 1.287602
51 1.250139 1.314545 1.008977 0.941808 1.103516 1.211538
51 1.259843 1.336462 1.254240 1.443772 1.211788 1.134994
51 1.046812 1.154584 1.306390 1.169022 1.410548 1.478383
51 0.991954 1.415986 1.013222 1.359412 1.467581 1.315751
51 1.139392 1.229120 1.270162 1.279209 1.275285 1.286370
51 1.327752 1.142721 1.268570 1.498006 1.251196 1.244229
51 1.443209 0.969779 1.457644 1.221198 1.324379 1.314405
51 1.422521 1.262606 1.206050 1.456635 0.980340 1.280021
51 1.098742 1.165248 1.503257 1.235041 1.252321 0.998417
51 1.112515 1.207028 1.207453 1.217679 1.127210 1.162152
51 1.129094 0.861571 1.031043 1.074849 1.024401 0.900616
51 0.827494 0.765485 0.815726 0.883900 0.614788 0.687672
51 0.629900 0.741764 0.629708 0.616986 0.616364 0.641615
51 0.576457 0.408283 0.606792 0.589850 0.543363 0.487654
51 0.558032 0.551966 0.500329 0.507321 0.464676 0.497147
51 0.422479 0.514254 0.441090 0.491699 0.406615 0.438184
51 0.452737 0.374849 0.445797 0.415071 0.348120 0.357533
51 0.424205 0.423026 0.371160 0.378630 0.359774 0.351634
51 0.372156 0.271957 0.333217 0.294046 0.294621 0.290322
51 0.288746 0.266234 0.315024 0.370269 0.324849 0.337109
51 0.324270 0.355127 0.387374 0.365975 0.371013 0.411407
51 0.363280 0.412178 0.435204 0.456040 0.397010 0.455459
51 0.444071 0.366329 0.364298 0.414188 0.490730 0.465520
51 0.469967 0.622430 0.601357 0.488668 0.714995 0.792781
51 0.835464 0.921981 0.941993 0.880498 1.038792 1.033157
51 1.088071 1.096284 1.364347 1.364883 1.331503 1.339359
51 1.463498 1.659421 1.219371 1.607119 1.483460 1.287213
51 1.288688 1.463784 1.654349 1.688093 1.474570 1.794071
51 1.859358 1.689855 1.526005 1.799208 1.733770 1.745449
51 1.494966 1.142031 1.923555 1.326351 1.568659 1.940291
51 1.611189 1.698823 1.311038 1.260821 1.442049 1.677013
51 1.448063 1.368732 1.501962 1.615584 1.233750 1.253136
51 1.297638 1.543564 1.405661 1.644219 1.462101 1.313829
51 1.464460 1.308734 1.174338 1.330041 1.142086 1.174923
51 1.351297 1.164229 1.066672 1.090878 1.244050 1.052481
51 1.057444 1.031209 1.093822 1.021319 0.882912 0.948877
51 0.935862 1.151332 1.099575 1.070308 0.955244 0.920648
51 0.949248 0.893751 1.248055 0.774936 1.056937 0.873286
51 0.993068 0.905601 0.887341 0.891291 1.181687 0.990006
51 0.923430 1.050356 0.989693 1.051740 0.795158 0.992617
51 1.027397 0.787007 0.975865 1.081264 0.914087 0.981730
51 0.960351 0.830758 0.892784 0.746887 0.843378 0.905342
51 0.945395 0.884567 0.947782 0.788989 0.881302 0.896497
51 1.066463 0.886589 0.867131 0.921933 0.842519 0.954115
51 0.910235 0.782834 0.957183 0.941247 0.821246 0.984132
51 1.148936 1.061650 1.080214 0.888919 1.084582 1.059143
51 1.107619 1.104977 0.923018 1.071850 1.002086 1.086683
51 1.001286 1.253213 1.019797 1.022469 1.139791 1.016610
51 1.098689 1.059733 1.328321 1.264809 1.174712 1.144027
51 1.312910 1.258707 1.280311 1.226289 1.030142 1.234994
51 1.191365 1.348982 1.404568 1.198631 1.350142 1.520297
51 1.213197 1.522584 1.194315 1.309939 1.305979 1.308776
51 1.197145 1.228369 1.217198 1.345556 1.344657 1.590183
51 1.478229 1.233543 1.342268 1.430229 1.305230 1.292950
51 1.309466 1.416358 1.193045 1.261118 1.364317 1.342412
51 1.331146 1.249346 1.419595 1.564423 1.336048 1.252746
51 1.365891 1.193305 1.157713 1.244644 0.911099 1.074663
51 1.158245 1.023552 1.045670 1.096835 0.941201 1.059143
51 1.022269 1.057200 1.145804 1.015416 0.969377 0.943918
51 0.920465 0.774239 0.817072 0.818453 0.659173 0.799991
51 0.787810 0.644352 0.650573 0.590598 0.674095 0.549070
51 0.586651 0.536702 0.578456 0.463661 0.629253 0.494187
51 0.542297 0.520496 0.484994 0.472523 0.560305 0.479580
51 0.513559 0.454087 0.455565 0.502944 0.517157 0.457497
51 0.392700 0.539305 0.402973 0.364920 0.530946 0.394500
51 0.341531 0.361720 0.389945 0.370826 0.321925 0.402461
51 0.312552 0.282278 0.342088 0.346358 0.276742 0.257418
51 0.330913 0.241318 0.271407 0.347950 0.324874 0.328257
51 0.360487 0.353858 0.322054 0.428542 0.440146 0.403579
51 0.401805 0.496087 0.391092 0.391025 0.415233 0.459615
51 0.466541 0.396341 0.427611 0.368343 0.431066 0.429507
51 0.449658 0.629398 0.538269 0.602507 0.718369 0.851394
51 0.856340 1.125762 0.941292 1.040451 1.108515 1.304804
51 1.260869 1.240186 1.181610 1.384691 1.589320 1.373586
51 1.544526 1.534649 1.656706 1.424114 1.937296 1.383242
51 1.541512 1.761926 1.666850 1.759061 1.546643 1.616272
51 1.629725 1.880552 1.733909 1.746200 1.505943 1.761747
51 1.636093 1.815206 1.907246 1.532536 1.510326 1.431772
51 1.537238 1.492270 1.598298 1.511243 1.468111 1.673056
51 1.359318 1.551284 1.413018 1.563456 1.641901 1.382512
51 1.470871 1.416145 1.263617 1.387890 1.375560 1.372891
51 1.274208 1.293700 1.118409 1.200762 1.295813 1.318058
51 1.142527 1.188457 1.186272 1.167047 1.189757 0.911496
51 1.094574 1.112635 0.966625 1.240091 1.068300 1.204046
51 0.950546 0.931106 1.039737 0.841234 1.027715 1.012170
51 1.101567 1.068835 0.956976 0.889640 1.171825 0.922628
51 0.898617 0.895868 1.118162 0.953793 0.929497 1.017164
51 0.979306 0.927578 1.063214 1.085615 1.068412 1.037252
51 0.992103 0.776220 1.089912 0.952377 0.971120 1.008362
51 1.029002 0.931415 0.927978 0.832599 0.886162 0.806581
51 0.818170 0.803547 0.870332 0.979827 1.172686 0.911728
51 0.778643 1.020598 0.885223 0.859195 0.947264 0.819941
51 0.965739 0.945239 0.972296 1.009194 0.988086 0.992402
51 1.028431 1.050964 0.912928 0.879833 1.028832 0.894123
51 1.061173 1.159695 1.133137 0.963491 0.990984 1.128008
51 1.055857 1.072736 1.182219 1.012544 1.085959 1.048171
51 1.027725 1.056600 1.242913 1.178738 1.077629 1.163090
51 1.003343 1.120982 1.481725 1.218414 1.330057 1.240862
51 1.302185 1.351288 1.134613 1.279080 1.493364 1.192375
51 1.226363 1.263264 1.340756 1.375542 1.473143 1.372571
51 1.298487 1.469942 1.396125 1.108074 1.630553 1.530870
51 1.278132 1.348934 1.472205 1.278153 1.396284 1.445836
51 1.170541 1.224820 1.423754 1.363642 1.423391 1.284607
51 1.262429 1.038034 1.145505 1.295371 1.389732 1.345277
51 1.253632 1.227027 1.278721 1.250276 1.400888 1.232641
51 1.022250 1.033120 1.343185 1.012603 1.212338 1.074345
51 1.061747 1.040377 1.152707 0.978948 0.964117 0.791551
51 0.918602 0.907637 0.846325 0.904925 0.768098 0.758270
51 0.828129 0.581170 0.636274 0.739795 0.689011 0.655926
51 0.649959 0.606335 0.669426 0.586388 0.568886 0.555640
51 0.549465 0.470268 0.565466 0.511796 0.605673 0.502358
51 0.521046 0.505827 0.456619 0.527913 0.563271 0.464972
51 0.444039 0.433539 0.357322 0.423757 0.432154 0.454473
51 0.438402 0.372084 0.365709 0.404800 0.345793 0.323051
51 0.375669 0.353438 0.312691 0.287572 0.240746 0.317024
51 0.273109 0.243885 0.358379 0.337814 0.289473 0.296211
51 0.378529 0.327798 0.418094 0.403474 0.409505 0.411463
51 0.407658 0.437426 0.383947 0.404896 0.430756 0.423221
51 0.354350 0.386502 0.425308 0.409786 0.523910 0.450474
51 0.491889 0.580252 0.603907 0.627091 0.640589 0.776313
51 0.901929 0.924574 0.874573 1.190357 0.922729 0.960463
51 1.315267 1.283108 1.233559 1.203162 1.717490 1.449140
51 1.545298 1.545393 1.591327 1.632397 1.684010 1.526619
51 1.553337 1.330370 1.492498 1.668286 1.797443 1.726005
51 1.572278 1.420147 1.171459 1.803626 1.517017 1.534102
51 1.621052 1.369785 1.531983 1.900955 1.653853 1.623485
51 1.312821 1.899648 1.323319 1.828182 1.201027 1.724585
51 1.742708 1.364306 1.535043 1.537669 1.324769 1.219121
51 1.223109 1.466539 1.361721 1.278780 1.466155 1.385442
51 1.201790 1.127679 1.329507 1.178411 1.239743 1.400805
51 1.252828 1.074726 1.178456 1.035015 1.310276 1.051474
51 1.122800 1.120100 1.091172 0.854218 0.899251 0.994154
51 1.065109 1.009906 0.919596 0.874622 0.965687 0.955463
51 1.051284 0.966221 1.058858 0.939890 0.974898 0.967124
51 0.925026 1.067701 0.923954 0.953517 0.997914 0.873177
51 0.967507 0.924274 0.950294 0.975218 0.894784 0.942168
51 1.078513 0.941399 1.040972 0.956491 0.986317 0.836952
51 0.909442 0.905982 0.834770 0.812796 0.751613 1.013857
51 0.795912 1.001186 0.842794 0.810308 0.945783 0.838295
51 0.951161 0.875839 0.956522 0.830898 1.004927 0.981750
51 0.857841 1.205715 1.014829 1.194776 1.138522 0.972074
51 0.958773 0.968337 0.831642 0.955205 1.060759 1.202907
51 0.970672 1.153685 0.934469 1.013200 1.034639 1.132760
51 1.150304 1.214425 1.201623 1.150781 1.175516 1.320313
51 1.088791 1.245179 0.953575 1.220897 1.124406 1.190911
51 1.324810 1.229606 1.327525 1.410710 1.287600 1.395309
51 1.217279 1.266198 1.208847 1.416868 1.343139 1.229718
51 1.320107 1.439123 1.300505 1.182919 1.324683 1.048359
51 1.407042 1.250545 1.243077 1.417053 1.123994 1.553914
51 1.237569 1.231800 1.432796 1.392718 1.620213 1.274518
51 1.287061 1.110521 1.260341 1.209527 1.244543 1.074796
51 1.515879 1.113542 0.931230 1.136079 1.206344 1.130577
51 1.409393 1.243920 1.254717 1.316297 1.263492 1.333732
51 1.066863 1.118947 1.243742 0.856232 0.971359 1.159280
51 1.028211 1.153236 1.110364 0.878604 1.006677 1.046937
51 0.913269 0.777624 0.899245 0.844389 0.805332 0.788969
51 0.498035 0.748366 0.787203 0.675728 0.642175 0.657036
51 0.620294 0.625401 0.575608 0.521721 0.499764 0.492350
51 0.465052 0.475016 0.617473 0.557664 0.480308 0.486426
51 0.505628 0.461292 0.490378 0.517610 0.471445 0.481307
51 0.498378 0.437265 0.453274 0.418081 0.420370 0.397761
51 0.378845 0.395000 0.397430 0.369225 0.369447 0.315293
51 0.290057 0.333568 0.333573 0.307249 0.342007 0.326544
51 0.380417 0.297349 0.278453 0.293776 0.308209 0.353205
51 0.273058 0.406730 0.361264 0.370666 0.346701 0.390942
51 0.400530 0.397125 0.415847 0.377775 0.364742 0.422634
51 0.406413 0.414884 0.458752 0.383531 0.406894 0.527861
51 0.425856 0.468245 0.632396 0.651493 0.700308 0.746684
51 0.819586 0.874176 1.076920 0.973831 1.061375 1.345814
51 1.203301 1.534837 1.291582 1.536477 1.163225 1.454375
51 1.234502 1.624262 1.340053 1.592699 1.524808 1.402427
51 1.340902 1.528497 1.900591 1.576581 1.776645 1.619165
51 1.770441 1.328513 1.556532 1.770903 1.585684 1.592246
51 1.531126 1.776992 1.634742 1.587997 1.675525 1.659370
51 1.592787 1.791572 1.533531 1.576052 1.425256 1.534781
51 1.738164 1.391241 1.305849 1.603167 1.420675 1.439413
51 1.402386 1.402278 1.490223 1.241534 1.201642 1.329659
51 1.091163 1.105654 1.499234 1.339692 1.226330 1.359870
51 1.068771 1.139022 1.232131 1.245890 1.186613 0.830933
51 0.993511 1.138502 1.035835 1.332110 1.148726 1.099366
51 0.916854 1.020400 1.041460 1.124952 1.094737 1.105974
51 0.907609 1.139861 0.860809 0.945760 1.043606 0.986979
51 0.902579 0.922328 0.850064 1.059510 1.131985 0.993276
51 0.959965 0.848548 1.078955 1.198048 0.797765 0.860921
51 0.888891 0.890572 0.955238 1.073690 1.007778 0.955076
51 0.834846 0.793914 0.818394 1.022779 0.877786 0.842504
51 0.865442 0.955160 0.768054 1.012264 0.904288 0.875414
51 0.939856 0.925778 0.881261 0.896720 0.847182 0.997515
51 0.894464 0.862472 0.978794 1.101324 0.976717 0.930534
51 1.040390 1.204472 0.870132 1.065881 1.056444 1.164874
51 1.156206 1.040377 0.888327 1.163117 0.993702 0.988754
51 1.226319 1.006910 1.272131 1.161193 1.167456 1.174335
51 0.959420 0.950360 1.189145 1.239269 1.191263 1.092793
51 1.202271 1.199766 1.102838 1.354178 1.024930 1.322578
51 1.306734 1.395192 1.147279 1.296060 1.569755 1.381194
51 1.313076 1.373640 1.316883 1.593275 1.436041 1.296081
51 1.339565 1.254531 1.462088 1.119745 1.092808 1.490392
51 1.579906 1.360684 1.314690 1.386030 1.217050 1.324314
51 1.307816 1.384985 1.100529 1.237476 1.413123 1.213912
51 1.170863 1.562244 1.298703 1.214663 1.066591 1.370592
51 1.358702 1.223623 1.113591 1.237528 1.125686 1.100400
51 1.187614 1.059301 1.194846 1.216659 1.031675 0.952922
51 1.248713 0.955368 0.959450 1.019460 1.025319 0.910667
51 0.941471 0.827309 0.746286 0.907181 0.953971 0.861124
51 0.721013 0.813876 0.690376 0.616555 0.659416 0.608458
51 0.541013 0.534389 0.621683 0.460706 0.589124 0.457816
51 0.424722 0.434009 0.628262 0.508384 0.516766 0.578028
51 0.546709 0.424961 0.529417 0.489110 0.456970 0.466792
51 0.516384 0.409673 0.458391 0.431012 0.345809 0.378129
51 0.407729 0.438625 0.413783 0.385634 0.323208 0.401729
51 0.336848 0.287988 0.306395 0.333126 0.301609 0.325920
51 0.333111 0.315596 0.282819 0.321554 0.328158 0.399844
51 0.291573 0.354503 0.348502 0.392781 0.293914 0.439550
51 0.400550 0.327865 0.387686 0.425892 0.336873 0.400793
51 0.359885 0.384241 0.415930 0.435054 0.424002 0.481701
51 0.540899 0.523768 0.668272 0.729381 0.663305 0.705524
51 0.681063 0.871136 0.913906 1.093224 0.915923 1.109405
51 1.316249 1.163127 1.205775 1.156075 1.759278 1.325302
51 1.276182 1.377382 1.406936 1.507028 1.698595 1.538816
51 1.452348 1.377033 1.622353 1.631160 1.876519 1.643509
51 1.611618 1.454692 1.572303 1.546434 1.552330 1.452063
51 1.686133 1.571101 1.555705 1.310040 1.652004 1.643508
51 1.428758 1.705165 1.332273 1.530057 1.481880 1.312915
51 1.528455 1.740038 1.482766 1.390352 1.506596 1.440799
51 1.412652 1.332066 1.568706 1.417106 1.266229 1.304216
51 1.203687 1.203668 1.182449 1.104097 1.322981 1.174845
51 1.259007 1.097325 1.152821 1.062655 1.209949 1.086361
51 1.019604 0.908263 1.103675 0.987019 1.049656 0.990054
51 1.130625 1.079736 1.062410 0.948653 1.053000 1.174323
51 0.916781 1.016027 0.833966 1.139075 0.960696 1.080412
51 0.830606 1.185516 0.969891 1.060887 1.020426 0.977716
51 1.168579 0.831063 1.018202 1.070441 0.969678 0.951985
51 0.940096 0.827966 0.937565 0.971858 0.921727 0.882510
51 0.855925 0.869040 1.001092 0.700864 0.886779 0.853005
51 1.009993 0.887292 1.015413 0.698448 0.931276 0.919831
51 1.025148 0.757287 0.898525 0.926046 0.881795 1.049953
51 0.912727 1.147715 1.064323 1.064548 1.036355 0.885394
51 0.956890 1.066842 1.086895 1.160843 0.986823 0.953880
51 1.142340 0.974337 1.161575 1.205434 1.133718 1.053100
51 1.104519 1.173561 1.116763 1.370432 1.019273 1.025090
51 1.035325 1.087513 0.910414 1.098825 1.104316 1.199953
51 1.250136 1.059662 1.329338 1.451097 1.213562 1.445687
51 1.283413 1.519258 1.418018 1.082393 1.292135 1.432007
51 1.303971 1.298561 1.471416 1.214165 1.309727 1.349580
51 1.262982 1.302923 1.405374 1.359351 1.196426 1.157053
51 1.197417 1.299976 1.279241 1.192349 1.223413 1.104106
51 1.357183 1.298108 1.139405 1.307302 1.477965 1.205536
51 1.470968 1.255358 1.319366 1.301906 1.463807 1.297662
51 1.124906 1.095952 1.059689 1.028191 1.234027 1.098422
51 1.190303 1.100440 1.076205 1.091777 1.205478 1.206547
51 1.120172 0.950142 1.093358 1.066962 0.993908 0.878207
51 1.058765

[CURVES]
;ID         X-Value      Y-Value     

[CONTROLS]

[RULES]

[ENERGY]
GLOBAL EFFICIENCY      75.0000
GLOBAL PRICE           0.0000
DEMAND CHARGE          0.0000

[EMITTERS]
;ID        Flow coefficient

[QUALITY]

[SOURCES]
;Node      Type       Quality    Pattern   

[REACTIONS]
;Type           Pipe/Tank               Coefficient

 ORDER BULK 1
 ORDER TANK 1
 ORDER WALL 1
 GLOBAL BULK 0.0000    
 GLOBAL WALL 0.0000    
 LIMITING POTENTIAL 0.0000    
 ROUGHNESS CORRELATION 0.0000    

[MIXING]
;Tank ID             Model Fraction

[TIMES]
DURATION             168:00:00
HYDRAULIC TIMESTEP   00:05:00
QUALITY TIMESTEP     00:05:00
PATTERN TIMESTEP     00:05:00
PATTERN START        00:00:00
REPORT TIMESTEP      00:05:00
REPORT START         00:00:00
START CLOCKTIME      00:00:00 AM
RULE TIMESTEP        00:06:00
STATISTIC            NONE      

[REPORT]
 Status             	No
 Summary            	No
 Page               	0
 Nodes					ALL
 Links					ALL
 Flow					Yes
 Headloss				No
 Velocity 				No
 Demand 				Yes
 Head 					Yes
 Pressure 				Yes
 Quality 				No
 State 					Yes

[OPTIONS]
UNITS                CMH                 
HEADLOSS             H-W                 
SPECIFIC GRAVITY     1
VISCOSITY            1
TRIALS               40
ACCURACY             0.001
CHECKFREQ            2
MAXCHECK             10
UNBALANCED           CONTINUE 10
DEMAND MULTIPLIER    1
DEMAND MODEL         PDA
MINIMUM PRESSURE     0.00
REQUIRED PRESSURE    0.10
PRESSURE EXPONENT    0.5
EMITTER EXPONENT     0.5
QUALITY              NONE                
DIFFUSIVITY          1
TOLERANCE            0.01

[COORDINATES]
;Node      X-Coord    Y-Coord   
1                4000.000000000       7000.000000000
2                5000.000000000       7000.000000000
3                4000.000000000       6000.000000000
4                5000.000000000       6000.000000000
5                4000.000000000       5000.000000000
6                5000.000000000       5000.000000000
7                6000.000000000       7000.000000000

[VERTICES]
;Link      X-Coord    Y-Coord   

[LABELS]

[BACKDROP]
DIMENSIONS    2900.000    4900.000    5100.000    7100.000
UNITS    METERS
OFFSET    0.00    0.00

[END]
