; Filename: D:/OneDrive/IHE_HI/015. Thesis/Github_repositories\Msc-Thesis/INP_FILES/Twoloops_Base_WNTR.inp
; WNTR: 0.4.2
; Created: 2023-03-07 09:38:21
[TITLE]

[JUNCTIONS]
;ID                      Elevation       Demand Pattern                 
 1                                160             100 49                         ;
 2                                150             100 49                         ;
 3                                150             270 49                         ;
 4                                155             120 49                         ;
 5                                160             200 49                         ;
 6                                165             330 49                         ;

[RESERVOIRS]
;ID                                   Head                  Pattern
 7                                210                            ;

[TANKS]
;ID                              Elevation           Init Level            Min Level            Max Level             Diameter           Min Volume Volume Curve         Overflow            

[PIPES]
;ID                   Node1                Node2                              Length             Diameter            Roughness           Minor Loss               Status
 1                    2                    1                               1000             200             130               0                 Open   ;
 2                    1                    3                               1000             150             130               0                 Open   ;
 3                    2                    4                               1000             450             130               0                 Open   ;
 4                    4                    3                               1000             150             130               0                 Open   ;
 5                    5                    3                               1000             150             130               0                 Open   ;
 6                    4                    6                               1000             400             130               0                 Open   ;
 7                    6                    5                               1000             250             130               0                 Open   ;
 8                    7                    2                               1000             450             130               0                 Open   ;

[PUMPS]
;ID                   Node1                Node2                Properties          

[VALVES]
;ID                   Node1                Node2                            Diameter Type              Setting           Minor Loss

[TAGS]
;type      name       tag       

[DEMANDS]
;ID        Demand     Pattern   

[STATUS]
;ID        Setting   

[PATTERNS]
;ID        Multipliers

49 0.995259 0.882561 0.875098 0.900688 0.849479 0.693085
49 0.751459 0.681531 0.662533 0.663408 0.635477 0.667854
49 0.627397 0.591419 0.590851 0.576355 0.605363 0.540213
49 0.549194 0.504546 0.444586 0.538896 0.538903 0.483647
49 0.568093 0.450576 0.488426 0.474870 0.516648 0.506714
49 0.462051 0.459696 0.417247 0.380154 0.412772 0.414967
49 0.429527 0.416265 0.367380 0.357300 0.329758 0.311409
49 0.295992 0.357693 0.302560 0.297689 0.278726 0.313336
49 0.270950 0.299569 0.292731 0.324622 0.316670 0.313272
49 0.347613 0.368583 0.371598 0.386943 0.373858 0.386852
49 0.383861 0.393354 0.382587 0.359865 0.404896 0.391005
49 0.363078 0.418159 0.392239 0.428549 0.464412 0.472538
49 0.534182 0.498876 0.598697 0.610189 0.656806 0.727418
49 0.801758 0.885276 0.882074 1.069029 1.108924 1.035880
49 1.307154 1.397504 1.397603 1.337059 1.304420 1.522990
49 1.431448 1.607639 1.544075 1.639504 1.602637 1.653377
49 1.601008 1.783419 1.631142 1.663426 1.811254 1.496768
49 1.503653 1.720016 1.507763 1.805961 1.571995 1.534101
49 1.784602 1.735383 1.765398 1.666986 1.492941 1.746790
49 1.534552 1.626246 1.630520 1.519149 1.579311 1.595749
49 1.533878 1.388805 1.499160 1.573875 1.382030 1.412926
49 1.371960 1.545640 1.428811 1.388390 1.275149 1.361114
49 1.247402 1.284076 1.215198 1.295904 1.270033 1.194940
49 1.221249 1.099005 1.056046 1.174157 1.140007 1.156483
49 1.257288 1.148240 1.015241 1.133463 0.968309 1.012418
49 1.027913 1.129284 0.971490 0.960811 1.000144 0.962519
49 1.067598 0.934095 0.929911 0.973064 0.970610 1.118001
49 1.060706 1.010163 0.931833 1.056959 0.944936 0.910352
49 1.071282 1.013975 1.043295 0.999859 1.022582 0.925738
49 0.894523 0.982433 0.888980 0.886212 0.890426 0.908163
49 0.880884 0.820257 0.854907 0.767519 0.916373 0.797138
49 0.823223 0.885157 0.844894 0.968894 0.821290 0.909109
49 0.897879 0.842495 0.941329 0.910499 0.970758 0.982324
49 1.067342 1.030143 0.941497 0.958153 1.046218 1.029737
49 1.038408 0.911153 1.016439 0.981181 1.052600 1.037504
49 1.109414 1.080350 1.118682 1.046185 1.022818 1.065283
49 1.098877 1.133017 1.266859 1.120614 1.066462 1.115676
49 1.115499 1.189033 1.056439 1.177112 1.192597 1.207191
49 1.156993 1.192421 1.115365 1.193117 1.199008 1.280221
49 1.171078 1.326636 1.389881 1.123696 1.322718 1.348040
49 1.250280 1.272300 1.295222 1.283587 1.283196 1.175813
49 1.396933 1.390121 1.240637 1.188313 1.342393 1.255728
49 1.311072 1.274909 1.353975 1.354762 1.244597 1.193948
49 1.179017 1.351055 1.210645 1.263931 1.256398 1.297759
49 1.148970 1.312016 1.334439 1.296143 1.259921 1.284889
49 1.300323 1.051480 1.398414 1.269610 1.180276 1.186354
49 1.235549 1.175514 1.024008 1.288996 1.118768 1.171547
49 1.035234 1.151730 1.044890 1.034662 0.906673 1.002541
49 0.937250 0.929190 0.795410 0.771026 0.869479 0.689430
49 0.705133 0.734692 0.670571 0.670104 0.614932 0.627895
49 0.552965 0.645545 0.571443 0.541983 0.577773 0.531826
49 0.495913 0.488827 0.546860 0.513595 0.508220 0.538920
49 0.466195 0.472011 0.475841 0.482983 0.471938 0.457645
49 0.456103 0.446603 0.421694 0.410384 0.428516 0.389135
49 0.372223 0.380980 0.372563 0.413174 0.337018 0.359679
49 0.344534 0.297371 0.326584 0.284009 0.253294 0.310261
49 0.268394 0.311652 0.296656 0.348847 0.347627 0.327984
49 0.333832 0.333172 0.360329 0.373653 0.380145 0.399177
49 0.413885 0.410462 0.383769 0.366814 0.433432 0.384090
49 0.386691 0.394138 0.368948 0.414965 0.432142 0.486363
49 0.520954 0.538917 0.617269 0.649315 0.692363 0.760867
49 0.807685 0.861400 0.933139 0.945569 1.096935 1.073064
49 1.260597 1.235989 1.309161 1.391700 1.447782 1.297385
49 1.448723 1.576880 1.369639 1.584738 1.356736 1.488824
49 1.603709 1.450697 1.523093 1.480812 1.788306 1.644500
49 1.683138 1.603756 1.587532 1.460486 1.583774 1.532748
49 1.682361 1.702925 1.727204 1.661911 1.517743 1.462255
49 1.631374 1.584712 1.379119 1.566117 1.597630 1.517428
49 1.483345 1.414833 1.344977 1.527857 1.415382 1.405754
49 1.555198 1.448410 1.403968 1.366809 1.458833 1.454488
49 1.372501 1.326400 1.104619 1.254605 1.217982 1.216884
49 1.260403 0.982806 1.120204 1.162524 1.097103 1.019327
49 1.157352 1.104712 1.011485 1.082334 1.103140 1.041586
49 1.081717 1.028823 0.992816 0.940613 1.000900 1.014110
49 1.052550 0.991915 1.026076 0.941478 0.953526 0.995361
49 0.940038 1.054339 1.033733 1.022840 1.025706 1.125018
49 0.971868 0.863619 1.000492 0.978118 0.942382 0.906791
49 0.928573 0.954103 0.905826 1.058272 0.862689 0.864040
49 0.776415 0.907500 0.781662 0.857004 0.868630 0.844356
49 0.973627 0.935043 0.954103 0.839842 0.950647 0.921401
49 0.941656 0.961952 0.862910 0.896547 0.975813 0.786921
49 1.030503 0.985317 0.960184 0.984977 0.920811 0.969980
49 1.066017 1.087634 1.182598 1.022089 0.994309 1.011449
49 0.987709 1.055219 1.092813 1.074094 1.155582 1.076805
49 1.077068 1.069179 1.006342 1.017782 1.051310 1.228292
49 1.209050 1.250986 1.071007 1.034149 1.134711 1.203165
49 1.235906 1.285753 1.240372 1.358067 1.222823 1.180613
49 1.131436 1.199646 1.294037 1.214633 1.362222 1.405201
49 1.115172 1.370939 1.130186 1.338423 1.403523 1.312360
49 1.206273 1.259693 1.283813 1.288707 1.285850 1.292087
49 1.316651 1.205558 1.281156 1.419023 1.271216 1.267345
49 1.387024 1.103197 1.396041 1.254147 1.315835 1.309389
49 1.373513 1.276492 1.241139 1.389702 1.101752 1.278982
49 1.167212 1.203671 1.402570 1.237254 1.242736 1.084991
49 1.147509 1.197721 1.190906 1.189378 1.126821 1.138880
49 1.109490 0.938751 1.029523 1.044188 1.001577 0.914219
49 0.856496 0.804038 0.820059 0.847916 0.674426 0.707106
49 0.662312 0.720169 0.644490 0.629174 0.621831 0.630672
49 0.585874 0.479823 0.594285 0.579927 0.548242 0.511371
49 0.550446 0.543899 0.510199 0.511816 0.483737 0.500763
49 0.453487 0.506014 0.459489 0.487125 0.433223 0.449174
49 0.454760 0.404708 0.443767 0.421614 0.377501 0.378964
49 0.414523 0.409117 0.373144 0.372739 0.356623 0.347145
49 0.355194 0.291260 0.324772 0.298718 0.297324 0.293941
49 0.293247 0.281117 0.312755 0.349064 0.325582 0.337128
49 0.333843 0.356815 0.380473 0.371603 0.378067 0.405028
49 0.377968 0.408118 0.422007 0.434202 0.398459 0.433541
49 0.427419 0.382542 0.384507 0.419400 0.472417 0.466875
49 0.481980 0.588976 0.594648 0.547735 0.706203 0.777105
49 0.828091 0.906110 0.944546 0.933983 1.054789 1.076317
49 1.132843 1.159678 1.340722 1.359590 1.356492 1.376562
49 1.464872 1.594765 1.341630 1.583771 1.517710 1.406782
49 1.413213 1.522597 1.640136 1.662556 1.535693 1.727824
49 1.766708 1.664102 1.564374 1.726465 1.685062 1.689722
49 1.536979 1.322740 1.789138 1.428225 1.570911 1.791048
49 1.590566 1.639911 1.403756 1.369857 1.474505 1.611040
49 1.468838 1.415994 1.490299 1.552492 1.317101 1.322172
49 1.342079 1.482647 1.392761 1.528634 1.412024 1.315680
49 1.398676 1.297892 1.209962 1.296169 1.176278 1.188979
49 1.287940 1.168994 1.103932 1.112126 1.197918 1.077103
49 1.074467 1.053390 1.085920 1.037699 0.950273 0.985829
49 0.974373 1.100405 1.066518 1.046561 0.975581 0.953358
49 0.969549 0.935776 1.148300 0.864688 1.034365 0.924771
49 0.997256 0.945314 0.934718 0.937172 1.111118 0.995343
49 0.954058 1.028234 0.989283 1.023483 0.866128 0.980918
49 0.997920 0.849738 0.959121 1.018542 0.914631 0.951923
49 0.936211 0.856059 0.891369 0.802401 0.859323 0.895969
49 0.919894 0.883699 0.922320 0.828111 0.884923 0.895807
49 0.999878 0.894350 0.885348 0.921147 0.876629 0.946898
49 0.924030 0.851167 0.959440 0.953594 0.885332 0.986792
49 1.089361 1.040609 1.055299 0.944008 1.064835 1.052946
49 1.085358 1.087055 0.981123 1.073632 1.034955 1.088871
49 1.040772 1.195054 1.058129 1.062866 1.136415 1.065697
49 1.118180 1.098099 1.262614 1.227950 1.177428 1.162658
49 1.267746 1.239100 1.256014 1.227577 1.113836 1.240613
49 1.218168 1.316284 1.352944 1.232398 1.325978 1.430349
49 1.247918 1.434898 1.238842 1.308739 1.306562 1.308175
49 1.240925 1.259242 1.252034 1.328515 1.327473 1.474375
49 1.406937 1.260051 1.325374 1.378357 1.303637 1.296577
49 1.306778 1.371144 1.237281 1.278099 1.339797 1.326193
49 1.318687 1.268536 1.369266 1.454375 1.315176 1.262617
49 1.327501 1.220505 1.195244 1.243016 1.038003 1.130738
49 1.174947 1.087635 1.093836 1.116871 1.015216 1.077075
49 1.045394 1.056129 1.098379 1.008529 0.968562 0.940200
49 0.912279 0.809291 0.820866 0.808648 0.701057 0.774498
49 0.757059 0.661722 0.657009 0.613342 0.656470 0.575145
49 0.591991 0.556874 0.577283 0.504214 0.599776 0.515290
49 0.541005 0.525017 0.500999 0.490938 0.541115 0.490223
49 0.508135 0.469913 0.468175 0.493872 0.499548 0.460762
49 0.418738 0.503382 0.418073 0.391524 0.487197 0.401145
49 0.364918 0.372334 0.384416 0.368056 0.333914 0.377642
49 0.319431 0.297452 0.330094 0.330105 0.286597 0.274199
49 0.318548 0.266167 0.286585 0.335673 0.325598 0.331816
49 0.355573 0.356054 0.341280 0.409144 0.419548 0.400331
49 0.401083 0.458463 0.395539 0.395193 0.409393 0.436034
49 0.440902 0.400549 0.422495 0.391893 0.436619 0.445268
49 0.469795 0.593157 0.556795 0.616039 0.708227 0.812273
49 0.840616 1.028378 0.944125 1.029955 1.096622 1.239305
49 1.236521 1.246020 1.231080 1.371475 1.511182 1.397099
49 1.513489 1.519902 1.604031 1.473968 1.790012 1.464399
49 1.564907 1.701482 1.647636 1.705136 1.578937 1.621145
49 1.628928 1.778520 1.689116 1.694660 1.548366 1.699501
49 1.621656 1.726645 1.779352 1.551936 1.535912 1.485937
49 1.546195 1.515980 1.576112 1.520110 1.490143 1.608667
49 1.415591 1.525525 1.436933 1.521215 1.561992 1.399798
49 1.446019 1.406195 1.307534 1.374837 1.360099 1.351117
49 1.284525 1.288871 1.176404 1.218601 1.268514 1.274860
49 1.162678 1.183531 1.175692 1.157827 1.165342 0.992512
49 1.096745 1.102245 1.009602 1.168962 1.061506 1.138930
49 0.983183 0.968269 1.030615 0.909116 1.019064 1.008272
49 1.060940 1.040826 0.973653 0.933510 1.103298 0.954376
49 0.940586 0.939475 1.073211 0.974673 0.959804 1.011638
49 0.987583 0.954568 1.033396 1.043808 1.030080 1.007699
49 0.976744 0.843265 1.027549 0.941210 0.948851 0.967902
49 0.977401 0.916453 0.912486 0.853828 0.884993 0.836713
49 0.843559 0.835086 0.875850 0.942613 1.059754 0.904946
49 0.827186 0.974756 0.896203 0.883504 0.939476 0.866393
49 0.957333 0.948610 0.968507 0.994363 0.985436 0.991754
49 1.017059 1.034198 0.954926 0.938557 1.031385 0.953934
49 1.057490 1.119885 1.107195 1.008617 1.028294 1.113666
49 1.073514 1.086768 1.155582 1.056911 1.104116 1.084634
49 1.075601 1.096219 1.211369 1.176307 1.119178 1.174096
49 1.082006 1.156465 1.376863 1.222852 1.293785 1.244134
49 1.284660 1.317668 1.190970 1.280668 1.411912 1.233596
49 1.255818 1.279306 1.326706 1.348101 1.406860 1.346452
49 1.301731 1.404186 1.359390 1.186026 1.499010 1.438787
49 1.286879 1.329286 1.403336 1.287112 1.358270 1.388308
49 1.223423 1.256221 1.375706 1.339613 1.375242 1.291510
49 1.277458 1.141749 1.204812 1.292944 1.347387 1.318136
49 1.260146 1.240738 1.267848 1.246395 1.331877 1.225525
49 1.093350 1.093376 1.272345 1.066332 1.177898 1.086196
49 1.069081 1.046034 1.102521 0.986647 0.965406 0.848780
49 0.911161 0.889330 0.838419 0.860531 0.766412 0.749465
49 0.781250 0.623813 0.648429 0.702860 0.665420 0.639259
49 0.629975 0.598654 0.631865 0.577850 0.563556 0.552162
49 0.545306 0.494880 0.549282 0.514501 0.568336 0.503890
49 0.512628 0.500957 0.468807 0.508853 0.527217 0.465248
49 0.449542 0.439922 0.390682 0.426826 0.427921 0.437128
49 0.423041 0.378553 0.369874 0.388440 0.348235 0.329996
49 0.357302 0.340148 0.312456 0.294833 0.264999 0.309963
49 0.283865 0.267708 0.338768 0.329591 0.304357 0.312589
49 0.366398 0.340418 0.398905 0.394103 0.401163 0.405061
49 0.404595 0.423267 0.391252 0.403516 0.418706 0.414198
49 0.373587 0.394646 0.421113 0.416758 0.492325 0.457848
49 0.495133 0.563669 0.596178 0.630789 0.661559 0.767224
49 0.867970 0.907665 0.904093 1.119899 0.985151 1.032701
49 1.269160 1.271773 1.262249 1.262557 1.588084 1.442431
49 1.513952 1.526349 1.564803 1.598938 1.638041 1.550425
49 1.572002 1.442549 1.543025 1.650671 1.729417 1.686985
49 1.594460 1.502277 1.351646 1.729116 1.555010 1.562914
49 1.612631 1.459392 1.554195 1.772987 1.622027 1.600965
49 1.411545 1.760406 1.411124 1.710273 1.329892 1.639584
49 1.645625 1.413338 1.510148 1.505743 1.371713 1.301763
49 1.297362 1.436432 1.366397 1.309371 1.414456 1.358648
49 1.241074 1.189258 1.303063 1.205191 1.234872 1.324508
49 1.228859 1.115292 1.171002 1.078608 1.237653 1.076499
49 1.113680 1.106724 1.084330 0.937439 0.960077 1.012995
49 1.051921 1.015549 0.958530 0.929149 0.981847 0.974248
49 1.030770 0.979258 1.034782 0.963660 0.985142 0.981073
49 0.956431 1.042574 0.956687 0.974508 1.000854 0.925246
49 0.980504 0.952585 0.965644 0.977570 0.925903 0.950648
49 1.028589 0.942373 0.998184 0.943679 0.957969 0.865056
49 0.905665 0.901193 0.856561 0.841946 0.804264 0.961078
49 0.830204 0.953670 0.859327 0.840903 0.923612 0.860886
49 0.930697 0.887900 0.938983 0.866526 0.974074 0.963479
49 0.892594 1.104895 0.994027 1.105712 1.075698 0.979558
49 0.975264 0.984622 0.906155 0.983780 1.050541 1.139204
49 1.003190 1.116279 0.987993 1.038442 1.054487 1.116517
49 1.130182 1.171781 1.167224 1.139854 1.157851 1.247918
49 1.112241 1.209366 1.037766 1.201603 1.147244 1.190789
49 1.274886 1.221640 1.284343 1.338230 1.268311 1.336802
49 1.233716 1.266614 1.235511 1.363341 1.321777 1.256002
49 1.312064 1.384821 1.302555 1.232527 1.317784 1.151924
49 1.366864 1.272547 1.267561 1.371414 1.195075 1.452614
49 1.262541 1.259006 1.379691 1.355851 1.492627 1.285518
49 1.293335 1.187642 1.277659 1.247145 1.267933 1.165623
49 1.429527 1.187054 1.076247 1.197369 1.237354 1.189315
49 1.353603 1.250874 1.253446 1.286008 1.249439 1.286179
49 1.120118 1.144873 1.212679 0.972510 1.033311 1.137157
49 1.048960 1.113750 1.077115 0.926441 0.990942 1.002011
49 0.907961 0.811322 0.870171 0.824210 0.788753 0.767884
49 0.583194 0.724130 0.738987 0.664420 0.637318 0.639924
49 0.612176 0.610093 0.575574 0.539049 0.522082 0.514188
49 0.494658 0.497729 0.580486 0.542022 0.493117 0.494330
49 0.503377 0.474236 0.489062 0.502671 0.472121 0.475049
49 0.482145 0.442158 0.448253 0.423420 0.420851 0.403101
49 0.387307 0.392302 0.388907 0.367095 0.362427 0.325341
49 0.305935 0.328226 0.324985 0.306640 0.325756 0.315675
49 0.348250 0.299786 0.290813 0.303168 0.315598 0.346785
49 0.303115 0.387777 0.364807 0.374418 0.363481 0.392749
49 0.400318 0.399086 0.410393 0.387243 0.379098 0.413846
49 0.404824 0.411675 0.441179 0.401006 0.422115 0.504281
49 0.455513 0.496465 0.613271 0.645430 0.697391 0.749447
49 0.818564 0.877427 1.025502 0.989983 1.068338 1.263911
49 1.201981 1.422810 1.297063 1.462547 1.255525 1.445572
49 1.327475 1.573670 1.414039 1.575119 1.542519 1.475910
49 1.444541 1.561425 1.787880 1.595649 1.716938 1.622881
49 1.713358 1.447297 1.582690 1.709482 1.596210 1.597800
49 1.558676 1.703717 1.615850 1.585213 1.635031 1.622496
49 1.579525 1.695561 1.537252 1.558995 1.464429 1.525701
49 1.642899 1.429499 1.372631 1.545042 1.429256 1.433938
49 1.404928 1.397875 1.443498 1.287024 1.255748 1.325178
49 1.174698 1.176043 1.404900 1.301959 1.226824 1.299947
49 1.118425 1.153870 1.203208 1.205133 1.163455 0.944174
49 1.036107 1.117765 1.051128 1.224173 1.109762 1.076122
49 0.962968 1.021846 1.031649 1.079347 1.059277 1.064554
49 0.944565 1.083442 0.915952 0.967182 1.026367 0.992986
49 0.942963 0.955350 0.912352 1.038104 1.081297 0.997305
49 0.975979 0.907150 1.042841 1.111268 0.867692 0.901900
49 0.914817 0.911877 0.946744 1.013998 0.970846 0.935930
49 0.860908 0.833952 0.846736 0.967936 0.879967 0.858266
49 0.871923 0.926054 0.814483 0.962076 0.898715 0.883157
49 0.923914 0.917864 0.893826 0.906019 0.879427 0.972938
49 0.914568 0.898950 0.972406 1.049641 0.978615 0.954633
49 1.024234 1.126302 0.929249 1.050185 1.047952 1.116384
49 1.114510 1.048295 0.960308 1.128392 1.029925 1.030114
49 1.175791 1.047272 1.209529 1.146101 1.153015 1.160332
49 1.034618 1.032475 1.179108 1.212626 1.187358 1.131918
49 1.201362 1.203736 1.149531 1.304310 1.110709 1.293163
49 1.287390 1.344011 1.198570 1.290856 1.457746 1.346887
49 1.307845 1.345531 1.312382 1.478741 1.384599 1.300558
49 1.326377 1.274939 1.398968 1.193029 1.176364 1.414500
49 1.467943 1.336336 1.308827 1.351838 1.250729 1.315395
49 1.305788 1.352320 1.181772 1.263914 1.369081 1.249093
49 1.222518 1.456275 1.296730 1.244519 1.153502 1.333324
49 1.323188 1.238696 1.168771 1.238746 1.166756 1.146180
49 1.192569 1.109085 1.183342 1.188766 1.069500 1.013342
49 1.181261 0.995029 0.986566 1.010955 1.002127 0.920250
49 0.924883 0.841133 0.778395 0.861885 0.877936 0.811177
49 0.716981 0.763437 0.680890 0.628916 0.647662 0.610778
49 0.564608 0.555486 0.603219 0.502440 0.575698 0.493468
49 0.470461 0.473125 0.586959 0.512454 0.514992 0.549292
49 0.528025 0.452438 0.512486 0.485571 0.463436 0.466339
49 0.492949 0.425603 0.451323 0.431179 0.376114 0.391322
49 0.404637 0.418477 0.398718 0.376941 0.334684 0.377202
49 0.334009 0.300878 0.308679 0.322165 0.301517 0.315300
49 0.319866 0.310734 0.293432 0.319836 0.327568 0.374769
49 0.314225 0.356441 0.357150 0.387687 0.331808 0.421913
49 0.400330 0.357530 0.393496 0.416114 0.362376 0.400742
49 0.376907 0.393289 0.415486 0.431919 0.432380 0.476584
49 0.524539 0.529779 0.634797 0.692163 0.675189 0.724751
49 0.735450 0.875602 0.927693 1.061619 0.981067 1.122066
49 1.269750 1.199784 1.245578 1.234305 1.613157 1.368128
49 1.352482 1.425542 1.454169 1.523717 1.646791 1.557743
49 1.511409 1.470546 1.620938 1.628396 1.776862 1.637487
49 1.618064 1.523004 1.592152 1.574800 1.576198 1.513690
49 1.651680 1.580182 1.568428 1.418438 1.620918 1.612979
49 1.481107 1.643716 1.416497 1.531398 1.498404 1.392582
49 1.517073 1.638777 1.478782 1.417353 1.480809 1.434769
49 1.411087 1.355748 1.490588 1.392367 1.294500 1.309912
49 1.242212 1.234852 1.214828 1.160602 1.284814 1.188932
49 1.232566 1.128851 1.155621 1.095192 1.177457 1.097431
49 1.051762 0.979622 1.091832 1.017119 1.050320 1.010535
49 1.091230 1.057447 1.044219 0.973568 1.034235 1.105564
49 0.950069 1.009142 0.899847 1.083171 0.976620 1.049046
49 0.899780 1.113263 0.984249 1.038930 1.014361 0.987969
49 1.101148 0.896659 1.006389 1.034703 0.970840 0.956538
49 0.945540 0.874313 0.936140 0.952898 0.919215 0.892391
49 0.873555 0.879028 0.956354 0.774787 0.885363 0.864568
49 0.958653 0.885334 0.962898 0.773787 0.914908 0.909807
49 0.975089 0.816769 0.904185 0.923615 0.900194 1.004400
49 0.925525 1.070096 1.023723 1.027575 1.014398 0.927550
49 0.974134 1.043724 1.059307 1.107163 1.006179 0.989788
49 1.106190 1.008671 1.124257 1.153783 1.113934 1.068721
49 1.102711 1.147263 1.116308 1.271644 1.064105 1.070785
49 1.080161 1.114767 1.011870 1.128359 1.135191 1.196214
49 1.230082 1.119673 1.285431 1.362462 1.223888 1.367029
49 1.273396 1.418450 1.361013 1.162655 1.291174 1.377375
49 1.302383 1.300484 1.405102 1.251274 1.308811 1.332657
49 1.280427 1.303974 1.364940 1.336792 1.238534 1.214497
49 1.238450 1.299911 1.287558 1.235629 1.254547 1.183270
49 1.335408 1.300194 1.205097 1.305810 1.407986 1.244068
49 1.402581 1.272144 1.309128 1.296865 1.391832 1.289567
49 1.182910 1.162094 1.136429 1.113144 1.231760 1.144994
49 1.194182 1.133768 1.112157 1.113837 1.173782 1.165517
49 1.104136 0.991894 1.066912 1.039456 0.983280 0.900774
49 0.995259

[CURVES]
;ID         X-Value      Y-Value     

[CONTROLS]

[RULES]

[ENERGY]
GLOBAL EFFICIENCY      75.0000
GLOBAL PRICE           0.0000
DEMAND CHARGE          0.0000

[EMITTERS]
;ID        Flow coefficient

[QUALITY]

[SOURCES]
;Node      Type       Quality    Pattern   

[REACTIONS]
;Type           Pipe/Tank               Coefficient

 ORDER BULK 1
 ORDER TANK 1
 ORDER WALL 1
 GLOBAL BULK 0.0000    
 GLOBAL WALL 0.0000    
 LIMITING POTENTIAL 0.0000    
 ROUGHNESS CORRELATION 0.0000    

[MIXING]
;Tank ID             Model Fraction

[TIMES]
DURATION             168:00:00
HYDRAULIC TIMESTEP   00:05:00
QUALITY TIMESTEP     00:05:00
PATTERN TIMESTEP     00:05:00
PATTERN START        00:00:00
REPORT TIMESTEP      00:05:00
REPORT START         00:00:00
START CLOCKTIME      00:00:00 AM
RULE TIMESTEP        00:06:00
STATISTIC            NONE      

[REPORT]
 Status             	No
 Summary            	No
 Page               	0
 Nodes					ALL
 Links					ALL
 Flow					Yes
 Headloss				No
 Velocity 				No
 Demand 				Yes
 Head 					Yes
 Pressure 				Yes
 Quality 				No
 State 					Yes

[OPTIONS]
UNITS                CMH                 
HEADLOSS             H-W                 
SPECIFIC GRAVITY     1
VISCOSITY            1
TRIALS               40
ACCURACY             0.001
CHECKFREQ            2
MAXCHECK             10
UNBALANCED           CONTINUE 10
DEMAND MULTIPLIER    1
DEMAND MODEL         PDA
MINIMUM PRESSURE     0.00
REQUIRED PRESSURE    0.10
PRESSURE EXPONENT    0.5
EMITTER EXPONENT     0.5
QUALITY              NONE                
DIFFUSIVITY          1
TOLERANCE            0.01

[COORDINATES]
;Node      X-Coord    Y-Coord   
1                4000.000000000       7000.000000000
2                5000.000000000       7000.000000000
3                4000.000000000       6000.000000000
4                5000.000000000       6000.000000000
5                4000.000000000       5000.000000000
6                5000.000000000       5000.000000000
7                6000.000000000       7000.000000000

[VERTICES]
;Link      X-Coord    Y-Coord   

[LABELS]

[BACKDROP]
DIMENSIONS    2900.000    4900.000    5100.000    7100.000
UNITS    METERS
OFFSET    0.00    0.00

[END]
