; Filename: D:/OneDrive/IHE_HI/015. Thesis/Github_repositories\Msc-Thesis/INP_FILES/Twoloops_Base_WNTR.inp
; WNTR: 0.4.2
; Created: 2023-03-07 09:41:16
[TITLE]

[JUNCTIONS]
;ID                      Elevation       Demand Pattern                 
 1                                160             100 79                         ;
 2                                150             100 79                         ;
 3                                150             270 79                         ;
 4                                155             120 79                         ;
 5                                160             200 79                         ;
 6                                165             330 79                         ;

[RESERVOIRS]
;ID                                   Head                  Pattern
 7                                210                            ;

[TANKS]
;ID                              Elevation           Init Level            Min Level            Max Level             Diameter           Min Volume Volume Curve         Overflow            

[PIPES]
;ID                   Node1                Node2                              Length             Diameter            Roughness           Minor Loss               Status
 1                    2                    1                               1000             200             130               0                 Open   ;
 2                    1                    3                               1000             150             130               0                 Open   ;
 3                    2                    4                               1000             450             130               0                 Open   ;
 4                    4                    3                               1000             150             130               0                 Open   ;
 5                    5                    3                               1000             150             130               0                 Open   ;
 6                    4                    6                               1000             400             130               0                 Open   ;
 7                    6                    5                               1000             250             130               0                 Open   ;
 8                    7                    2                               1000             450             130               0                 Open   ;

[PUMPS]
;ID                   Node1                Node2                Properties          

[VALVES]
;ID                   Node1                Node2                            Diameter Type              Setting           Minor Loss

[TAGS]
;type      name       tag       

[DEMANDS]
;ID        Demand     Pattern   

[STATUS]
;ID        Setting   

[PATTERNS]
;ID        Multipliers

79 1.058765 0.624009 0.548937 0.489636 0.356027 0.360909
79 0.547504 1.181837 1.583485 1.665696 1.521607 1.489056
79 1.183714 1.012168 1.044386 0.930031 1.034467 0.979484
79 1.134437 1.097509 0.968111 1.384970 1.412377 1.110940
79 1.104278 0.512738 0.502288 0.392513 0.345983 0.458774
79 0.507747 1.245380 1.457954 1.283073 1.447813 1.320325
79 1.235332 1.120238 0.961267 0.872793 0.805630 0.857998
79 0.912310 1.434093 1.233745 1.243050 1.137137 1.293299
79 0.754749 0.587236 0.455227 0.415476 0.284676 0.352775
79 0.498591 1.251400 1.610643 1.648396 1.404852 1.252844
79 1.026029 0.964045 0.918685 0.744635 0.915968 0.959822
79 0.920678 1.255534 1.182051 1.306753 1.394782 1.215478
79 1.002546 0.525910 0.520117 0.372608 0.273876 0.376846
79 0.484422 1.206740 1.413576 1.744132 1.569849 1.100288
79 1.263708 1.189589 1.117878 0.883807 0.803632 1.105445
79 1.055651 1.346693 1.327076 1.426963 1.346328 1.284789
79 0.900945 0.707152 0.506346 0.416080 0.356495 0.346090
79 0.436476 1.316328 1.412300 1.910979 1.437957 1.202831
79 1.311524 1.148051 1.186756 0.981544 0.822490 1.191006
79 1.070520 1.296295 1.423143 1.279849 1.379830 1.310665
79 0.933878 0.534036 0.514912 0.453055 0.279163 0.394015
79 0.478242 1.421912 1.707567 1.665194 1.384513 1.370102
79 1.025823 1.003183 0.936415 0.960879 0.951893 0.979170
79 1.143561 1.068833 1.106137 1.357121 1.321668 1.276204
79 1.114483 0.656669 0.454359 0.444681 0.260523 0.381537
79 0.496588 1.405601 1.480839 1.467770 1.485232 1.213748
79 1.223930 0.892007 0.885253 0.860596 0.855177 1.192953
79 1.204436 1.210506 1.140693 1.409767 1.169972 1.014627
79 1.006923 0.619017 0.546043 0.412749 0.325705 0.373959
79 0.448288 1.281791 1.471454 1.489672 1.431670 1.302272
79 1.061061 0.862505 0.935638 0.699894 0.956271 0.839794
79 0.978518 1.206260 1.203857 1.500592 1.131929 1.232046
79 0.896465 0.529914 0.526164 0.393138 0.323154 0.432940
79 0.608162 1.360383 1.540931 1.561699 1.664949 1.385184
79 1.170414 0.838304 0.997567 0.833577 0.925193 0.990185
79 1.200120 1.238066 1.402223 1.239366 1.177222 1.150794
79 0.898468 0.622749 0.612965 0.398310 0.271322 0.386161
79 0.476820 1.257778 1.353472 1.610122 1.523476 1.330184
79 1.034295 0.976208 0.857594 0.855601 0.851142 1.041605
79 0.972820 1.293744 1.494283 1.030902 1.355414 1.281229
79 0.842631 0.576164 0.493356 0.388088 0.290730 0.332960
79 0.557617 1.329554 1.469862 1.365372 1.578160 1.225148
79 1.115615 0.968067 1.069154 0.962527 0.834696 0.861664
79 0.925877 1.273246 1.145448 1.234114 1.222479 1.193692
79 0.725735 0.611327 0.526195 0.403537 0.290673 0.403896
79 0.519952 0.867289 1.912946 1.662415 1.402139 1.249176
79 1.154312 0.988390 0.796932 1.085804 0.890051 1.102017
79 1.023875 1.384365 1.337225 1.379150 1.164117 1.345337
79 0.962084 0.678111 0.468596 0.380759 0.369118 0.357599
79 0.493203 1.336427 1.615636 1.693273 1.440083 1.348107
79 0.956282 1.165813 0.988184 0.838784 0.959974 0.953928
79 0.953232 1.038394 1.390191 1.279255 1.282619 1.329329
79 0.798586 0.556159 0.480756 0.403774 0.298735 0.388525
79 0.496919 1.187123 1.484863 1.469921 1.541177 1.184181
79 0.972691 0.968771 0.984233 1.103105 0.836577 1.094326
79 1.182191 1.057327 1.400523 1.146096 0.954308 1.272758
79 0.741970 0.627056 0.465799 0.466382 0.332055 0.381865
79 0.465608 1.054311 1.529452 1.555143 1.445296 1.320372
79 1.163637 1.034965 0.923586 0.770599 1.022808 0.931055
79 1.028248 1.137457 1.060401 1.237863 1.237645 1.274443
79 0.962861 0.600226 0.546592 0.413599 0.299530 0.406437
79 0.490467 1.152618 1.557163 1.419518 1.542066 1.170894
79 1.192579 0.975054 1.004949 0.944445 0.957898 0.842938
79 1.077241 1.305621 1.079246 1.350346 1.006777 1.077299
79 0.903477 0.500597 0.450724 0.341127 0.349444 0.406569
79 0.528365 1.173279 1.543451 1.341364 1.456224 1.201006
79 1.194372 1.114110 1.146658 0.976730 0.846121 0.888410
79 1.184333 1.242755 1.070090 1.346213 1.405888 1.207071
79 0.883345 0.551541 0.427673 0.432012 0.290727 0.390661
79 0.586636 1.282140 1.659332 1.622730 1.727999 1.523547
79 1.202246 1.058222 0.790540 0.911135 0.888290 1.009395
79 1.203735 0.871239 1.225989 1.335088 1.239310 1.029971
79 0.978207 0.616612 0.451445 0.412593 0.324648 0.400212
79 0.540028 1.209391 1.536763 1.414493 1.487110 1.325258
79 1.196342 0.988489 1.045742 0.813185 0.829563 0.988961
79 0.983991 1.298430 1.360207 1.336282 1.344058 1.442525
79 0.857802 0.467914 0.509965 0.397976 0.284474 0.360847
79 0.478041 1.221761 1.519549 1.985993 1.355924 1.196895
79 0.848252 1.025148 0.798359 0.851449 0.875190 0.929027
79 1.291276 1.319327 1.471488 1.185286 1.446717 1.259520
79 0.969427 0.661766 0.454562 0.383027 0.325878 0.293775
79 0.575666 1.266376 1.592687 1.635281 1.345510 1.254507
79 1.221031 1.129802 1.269622 0.893347 0.840730 0.948577
79 0.988015 1.190657 1.349755 1.295549 1.442525 1.171894
79 0.868729 0.565124 0.418368 0.337289 0.264625 0.452057
79 0.544763 1.364996 1.386846 1.285020 1.400992 1.322856
79 1.154856 1.104797 1.028428 1.056840 0.879965 0.908692
79 0.915066 1.093323 1.331475 1.184466 1.421777 1.369479
79 0.686737 0.651843 0.388020 0.416060 0.336746 0.402594
79 0.436016 1.129748 1.558137 1.570841 1.469565 1.285715
79 1.123483 0.879143 0.975798 1.036644 0.865382 0.955616
79 1.218602 0.892898 1.453579 1.217853 1.321311 1.211559
79 0.984822 0.583944 0.466099 0.451914 0.229075 0.400813
79 0.432604 1.108611 1.921801 1.592865 1.529260 1.068397
79 1.019805 1.019656 1.035476 0.955520 0.900777 1.052700
79 1.149916 0.980431 1.304811 1.399827 1.376684 1.156337
79 0.827494 0.532901 0.493447 0.445323 0.241446 0.373604
79 0.443010 1.294195 1.511310 1.524698 1.467458 1.357901
79 1.056837 0.695386 1.054331 0.939514 0.880241 0.891596
79 1.138696 1.245508 1.238896 1.271825 1.179080 1.178569
79 0.760461 0.625039 0.452782 0.409524 0.257821 0.376398
79 0.494476 1.000716 1.618424 1.539336 1.238647 1.130578
79 1.166563 1.089556 0.986809 0.936429 0.920146 1.032962
79 1.241458 1.019160 1.387940 1.250339 1.270846 1.163730
79 0.866237 0.526428 0.509167 0.466838 0.298316 0.399945
79 0.465635 1.185903 1.674587 1.540761 1.431929 1.352424
79 0.999019 1.025250 1.082032 1.022395 0.891866 1.136760
79 1.213785 1.080454 1.141668 1.260355 1.433762 1.191326
79 0.845941 0.693135 0.514345 0.307176 0.309515 0.420802
79 0.511280 1.253965 1.589236 1.389057 1.444394 1.177070
79 0.997398 0.873693 1.045249 0.908811 0.859665 0.935066
79 1.097423 1.329503 1.039452 1.348994 1.229057 0.973850
79 1.058765

[CURVES]
;ID         X-Value      Y-Value     

[CONTROLS]

[RULES]

[ENERGY]
GLOBAL EFFICIENCY      75.0000
GLOBAL PRICE           0.0000
DEMAND CHARGE          0.0000

[EMITTERS]
;ID        Flow coefficient

[QUALITY]

[SOURCES]
;Node      Type       Quality    Pattern   

[REACTIONS]
;Type           Pipe/Tank               Coefficient

 ORDER BULK 1
 ORDER TANK 1
 ORDER WALL 1
 GLOBAL BULK 0.0000    
 GLOBAL WALL 0.0000    
 LIMITING POTENTIAL 0.0000    
 ROUGHNESS CORRELATION 0.0000    

[MIXING]
;Tank ID             Model Fraction

[TIMES]
DURATION             672:00:00
HYDRAULIC TIMESTEP   01:00:00
QUALITY TIMESTEP     00:05:00
PATTERN TIMESTEP     01:00:00
PATTERN START        00:00:00
REPORT TIMESTEP      01:00:00
REPORT START         00:00:00
START CLOCKTIME      00:00:00 AM
RULE TIMESTEP        00:06:00
STATISTIC            NONE      

[REPORT]
 Status             	No
 Summary            	No
 Page               	0
 Nodes					ALL
 Links					ALL
 Flow					Yes
 Headloss				No
 Velocity 				No
 Demand 				Yes
 Head 					Yes
 Pressure 				Yes
 Quality 				No
 State 					Yes

[OPTIONS]
UNITS                CMH                 
HEADLOSS             H-W                 
SPECIFIC GRAVITY     1
VISCOSITY            1
TRIALS               40
ACCURACY             0.001
CHECKFREQ            2
MAXCHECK             10
UNBALANCED           CONTINUE 10
DEMAND MULTIPLIER    1
DEMAND MODEL         PDA
MINIMUM PRESSURE     0.00
REQUIRED PRESSURE    0.10
PRESSURE EXPONENT    0.5
EMITTER EXPONENT     0.5
QUALITY              NONE                
DIFFUSIVITY          1
TOLERANCE            0.01

[COORDINATES]
;Node      X-Coord    Y-Coord   
1                4000.000000000       7000.000000000
2                5000.000000000       7000.000000000
3                4000.000000000       6000.000000000
4                5000.000000000       6000.000000000
5                4000.000000000       5000.000000000
6                5000.000000000       5000.000000000
7                6000.000000000       7000.000000000

[VERTICES]
;Link      X-Coord    Y-Coord   

[LABELS]

[BACKDROP]
DIMENSIONS    2900.000    4900.000    5100.000    7100.000
UNITS    METERS
OFFSET    0.00    0.00

[END]
