; Filename: D:/OneDrive/IHE_HI/015. Thesis/Github_repositories\Msc-Thesis/INP_FILES/Twoloops_Base_WNTR.inp
; WNTR: 0.4.2
; Created: 2023-03-07 09:40:55
[TITLE]

[JUNCTIONS]
;ID                      Elevation       Demand Pattern                 
 1                                160             100 74                         ;
 2                                150             100 74                         ;
 3                                150             270 74                         ;
 4                                155             120 74                         ;
 5                                160             200 74                         ;
 6                                165             330 74                         ;

[RESERVOIRS]
;ID                                   Head                  Pattern
 7                                210                            ;

[TANKS]
;ID                              Elevation           Init Level            Min Level            Max Level             Diameter           Min Volume Volume Curve         Overflow            

[PIPES]
;ID                   Node1                Node2                              Length             Diameter            Roughness           Minor Loss               Status
 1                    2                    1                               1000             200             130               0                 Open   ;
 2                    1                    3                               1000             150             130               0                 Open   ;
 3                    2                    4                               1000             450             130               0                 Open   ;
 4                    4                    3                               1000             150             130               0                 Open   ;
 5                    5                    3                               1000             150             130               0                 Open   ;
 6                    4                    6                               1000             400             130               0                 Open   ;
 7                    6                    5                               1000             250             130               0                 Open   ;
 8                    7                    2                               1000             450             130               0                 Open   ;

[PUMPS]
;ID                   Node1                Node2                Properties          

[VALVES]
;ID                   Node1                Node2                            Diameter Type              Setting           Minor Loss

[TAGS]
;type      name       tag       

[DEMANDS]
;ID        Demand     Pattern   

[STATUS]
;ID        Setting   

[PATTERNS]
;ID        Multipliers

74 1.027012 0.733691 0.646979 0.635708 0.574702 0.422004
74 0.430403 0.325758 0.297523 0.359640 0.404609 0.449263
74 0.530442 0.824984 1.242611 1.506092 1.791242 1.601018
74 1.640073 1.453065 1.193641 1.482403 1.389901 1.122078
74 1.299738 0.912050 1.003661 0.988511 1.122622 1.065811
74 0.911156 0.908316 0.836079 0.795019 0.972167 1.065123
74 1.208266 1.257786 1.162817 1.227940 1.190950 1.158164
74 1.122548 1.506056 1.246996 1.225412 1.079732 1.147263
74 0.783799 0.698832 0.557018 0.555754 0.479568 0.414556
74 0.399098 0.341050 0.301596 0.356628 0.379702 0.390763
74 0.473102 0.793530 1.121938 1.264346 1.622711 1.575414
74 1.391335 1.617373 1.391124 1.414595 1.375825 1.205214
74 1.200267 0.930178 1.032187 0.948560 0.930336 0.909540
74 0.877568 0.885605 0.816109 1.012805 1.037253 0.922679
74 1.230966 1.321445 1.313163 1.240259 1.188642 1.416815
74 1.258070 1.430150 1.321661 1.369138 1.234211 1.141135
74 0.900756 0.812502 0.606092 0.556404 0.575326 0.408435
74 0.359344 0.355323 0.271845 0.402344 0.386764 0.378377
74 0.576918 0.913801 1.379286 1.573262 1.489763 1.876460
74 1.565696 1.659754 1.613670 1.391271 1.363864 1.280913
74 1.133125 0.941360 1.023859 1.110026 0.944435 0.942288
74 0.868669 1.012074 0.948405 0.975518 0.938407 1.097347
74 1.040659 1.150337 1.138959 1.326469 1.359965 1.284822
74 1.341185 1.188828 1.144909 1.314557 1.216001 1.134953
74 1.071586 0.764649 0.556185 0.587240 0.447364 0.440890
74 0.397816 0.374949 0.282126 0.325180 0.396850 0.381081
74 0.545065 0.746444 1.089843 1.415554 1.536252 1.878995
74 1.721526 1.570555 1.352948 1.503900 1.195978 1.045484
74 1.204547 1.058309 1.073669 1.029128 1.068546 0.904034
74 0.825535 0.929717 0.842155 0.892608 0.963557 1.053436
74 1.068849 1.021204 1.138213 1.034543 1.365024 1.139136
74 1.185144 1.308183 1.223085 1.426678 1.075886 1.103157
74 0.897172 0.644497 0.625117 0.531670 0.530872 0.487955
74 0.469224 0.365008 0.291140 0.341534 0.435189 0.423538
74 0.525605 0.711343 1.197665 1.380322 1.635830 1.614953
74 1.716503 1.599211 1.594359 1.356176 1.201778 1.153773
74 1.098502 1.063446 1.180745 1.000147 0.923524 0.927307
74 0.866621 0.915603 0.789063 0.949504 1.012521 1.071505
74 1.047436 1.125576 1.063290 1.208710 1.243542 1.350084
74 1.179757 1.384163 1.455426 1.059621 1.240921 1.138572
74 0.854105 0.688337 0.593622 0.526226 0.487639 0.396414
74 0.436875 0.358231 0.280479 0.307353 0.416674 0.383904
74 0.505678 0.796159 1.266388 1.548466 1.507124 1.447594
74 1.397384 1.635789 1.357337 1.351623 1.237983 1.187888
74 0.929607 1.047727 1.041911 1.010638 0.975129 0.961136
74 0.928731 0.686088 1.040826 0.974205 0.947807 1.019064
74 1.143449 1.136758 1.005054 1.466204 1.288504 1.413231
74 1.228027 1.462868 1.329780 1.331772 1.099656 1.184733
74 0.949667 0.784974 0.569852 0.518324 0.592157 0.418974
74 0.395650 0.359742 0.302345 0.364441 0.387218 0.414356
74 0.447739 0.925411 1.188656 1.387112 1.685297 1.567739
74 1.429215 1.391601 1.583253 1.390757 1.286095 1.295757
74 1.000839 0.971806 0.969210 1.011114 0.996626 0.931816
74 0.895563 0.874075 0.848188 0.883279 1.021961 0.976988
74 0.998153 1.118749 1.184864 1.485556 1.226711 1.405192
74 1.377708 1.178835 1.380418 1.149643 0.944719 1.132472
74 0.773576 0.736578 0.567167 0.610637 0.542740 0.441191
74 0.377989 0.297723 0.289418 0.340392 0.388330 0.407487
74 0.523141 0.839885 1.126642 1.298202 1.774660 1.537955
74 1.516506 1.494602 1.278832 1.354874 1.250116 1.252107
74 1.161464 1.032450 1.074548 1.030833 0.998745 0.965983
74 0.886273 0.853794 0.880723 0.859470 1.022435 0.968387
74 1.174064 1.124517 1.204752 1.308087 1.366905 1.142422
74 1.278482 1.394479 1.123397 1.309263 0.983466 0.991731
74 0.902781 0.616707 0.552695 0.475595 0.565925 0.463810
74 0.418153 0.323877 0.291518 0.303173 0.390661 0.377925
74 0.534317 0.891616 1.340792 1.566985 1.523372 1.482423
74 1.698133 1.604086 1.287775 1.448803 1.384710 1.198528
74 1.083715 0.965451 0.884277 1.067790 0.975271 0.935892
74 1.024756 0.929922 0.926699 0.955460 1.121600 1.196681
74 1.181796 1.200860 0.998918 1.270827 1.286469 1.316416
74 1.398077 1.017218 1.240792 1.297338 1.155183 0.957652
74 0.962565 0.726679 0.553387 0.552645 0.532863 0.457989
74 0.425618 0.331815 0.290515 0.315905 0.397250 0.408697
74 0.535033 0.809507 1.243912 1.353732 1.499823 1.613359
74 1.465008 1.661974 1.555576 1.440195 1.335246 1.385778
74 1.058740 0.850363 1.015944 0.999477 0.958598 0.879023
74 0.868378 0.894433 0.863797 1.127051 0.923160 0.985219
74 0.898601 1.170500 1.006425 1.204066 1.271330 1.232409
74 1.480843 1.406382 1.437190 1.180270 1.308345 1.122940
74 0.955541 0.769481 0.556379 0.520769 0.534504 0.360537
74 0.448426 0.344342 0.298903 0.354344 0.367042 0.391175
74 0.544011 0.901873 1.458838 1.458258 1.515705 1.560771
74 1.469691 1.549917 1.545928 1.404882 1.414020 1.170553
74 1.069424 0.984143 0.869389 0.877674 0.905667 1.052999
74 0.964459 0.978621 0.804081 0.795938 0.947195 1.066762
74 1.143885 1.243612 1.227291 1.433806 1.276849 1.211153
74 1.125153 1.210098 1.325180 1.179630 1.289927 1.202117
74 0.729390 0.760074 0.492499 0.556383 0.548995 0.460171
74 0.359050 0.314307 0.293721 0.343125 0.393507 0.398904
74 0.508539 0.738036 1.176766 1.645109 1.550765 1.569938
74 1.738009 1.240321 1.641765 1.337526 1.317049 1.202097
74 1.182937 1.010043 0.945758 1.107734 0.810866 0.955256
74 0.802949 0.827928 1.044810 0.941352 1.015606 0.902034
74 1.035844 1.165458 1.234057 1.320474 1.300897 1.361682
74 1.347193 1.112052 1.303849 1.347932 1.256628 1.048642
74 0.841995 0.647328 0.593709 0.587933 0.421928 0.433628
74 0.363526 0.350458 0.286697 0.335092 0.393058 0.416781
74 0.484304 0.617928 1.252158 1.518458 1.571899 1.486572
74 1.645028 1.606949 1.443596 1.384315 1.203264 1.175862
74 0.963562 1.066597 0.924451 1.022655 0.887523 0.908685
74 0.892045 0.764512 0.908291 0.916068 0.860612 0.942288
74 1.153251 1.229622 1.187337 1.299120 1.323280 1.341050
74 1.433742 1.145688 1.370352 1.231108 1.178471 1.053966
74 0.872989 0.641192 0.608800 0.611128 0.497755 0.457745
74 0.378006 0.326652 0.311188 0.337888 0.385478 0.415425
74 0.463280 0.833535 1.278751 1.626530 1.588431 1.805820
74 1.732404 1.435333 1.353847 1.374372 1.407009 1.186007
74 1.047142 1.160309 1.022952 0.817235 1.025373 0.993382
74 0.916244 0.913362 0.895156 0.845081 0.970344 0.972385
74 1.017919 1.031474 1.243439 1.268227 1.253391 1.238721
74 1.297564 1.415220 1.091562 1.308206 1.147612 0.917242
74 0.759909 0.659018 0.610536 0.556019 0.462441 0.495042
74 0.445535 0.340200 0.285806 0.379524 0.424173 0.430368
74 0.473741 0.631758 1.403212 1.277890 1.595422 1.937751
74 1.642314 1.678069 1.319712 1.208399 1.244599 1.296998
74 1.069530 0.966525 1.015837 1.090400 0.884405 0.861344
74 0.843216 0.958850 0.916907 1.105866 1.074916 1.049012
74 1.211327 1.166830 1.132328 1.326825 1.227582 1.276241
74 1.438089 1.292191 1.216473 1.222744 1.298092 1.032339
74 0.872145 0.681909 0.608828 0.522444 0.435927 0.425303
74 0.370151 0.362550 0.319504 0.364561 0.383829 0.376177
74 0.479699 0.748278 1.439731 1.203435 1.672193 1.460461
74 1.586644 1.436358 1.358685 1.280242 1.482519 1.180214
74 1.032618 1.078031 1.000828 1.061346 0.854059 0.976868
74 0.955634 0.764448 0.932270 1.072917 0.998811 1.121093
74 1.159010 1.082471 1.203818 1.100623 1.253064 1.334367
74 1.375202 1.305312 1.374878 1.157870 1.190237 1.081748
74 1.033171 0.698751 0.576047 0.539989 0.463235 0.464855
74 0.388318 0.282495 0.298594 0.339356 0.347762 0.400280
74 0.559574 0.851105 1.258745 1.309503 1.661043 1.647065
74 1.667718 1.612363 1.336826 1.404075 1.221181 1.188125
74 1.021029 1.140511 0.931282 0.931369 1.005967 0.871526
74 0.869424 0.823105 1.001604 1.004112 0.995402 1.019042
74 1.182801 1.184611 1.247813 1.255736 1.124424 1.294839
74 1.244621 1.369974 1.405232 1.203074 1.244965 1.230074
74 0.851925 0.806590 0.559076 0.540058 0.499554 0.458216
74 0.373194 0.314155 0.283975 0.357310 0.410561 0.474107
74 0.554840 0.783706 1.231187 1.583950 1.603917 1.618665
74 1.606602 1.667842 1.398202 1.372038 1.348925 1.222627
74 1.121083 1.001604 1.077803 1.174853 1.032513 0.938966
74 0.954413 0.843617 0.846022 0.947202 0.793376 0.954852
74 1.069379 1.023184 1.100866 1.214405 1.129132 1.264150
74 1.244332 1.305394 1.420035 1.287443 1.202022 1.088676
74 0.916372 0.653105 0.594491 0.552383 0.445170 0.489499
74 0.434604 0.313095 0.294208 0.323739 0.422380 0.368275
74 0.491101 0.760890 1.204892 1.256373 1.769787 1.502124
74 1.607667 1.533115 1.408546 1.308689 1.397385 1.142742
74 1.123863 0.965958 0.948225 1.041453 1.074433 0.940328
74 0.797622 1.022562 0.838328 0.828213 1.207554 1.017963
74 0.971368 1.084680 1.235284 1.277531 1.211420 1.497120
74 1.245756 1.179279 1.399912 1.404942 1.121521 0.958997
74 0.974192 0.594491 0.541122 0.580790 0.497786 0.448129
74 0.411290 0.325721 0.268832 0.383748 0.442400 0.409053
74 0.501805 0.969955 1.173462 1.436471 1.646654 1.819327
74 1.803875 1.527369 1.537000 1.253432 1.267554 1.112714
74 1.011399 1.170989 0.936617 0.960860 1.029268 1.052724
74 0.934640 1.076265 0.894624 0.964276 1.022048 1.172735
74 1.144637 1.136746 1.109041 1.282980 1.445740 1.263699
74 1.355010 1.328400 1.389806 1.188160 1.425278 0.969554
74 0.873680 0.764285 0.614243 0.574862 0.480156 0.455056
74 0.400391 0.371148 0.316570 0.370394 0.378946 0.433635
74 0.509023 0.907829 1.393350 1.430933 1.547993 1.515219
74 1.581622 1.511966 1.543141 1.392448 1.262394 1.294501
74 1.017467 1.067901 0.967525 1.061694 1.110821 0.930579
74 0.931754 0.894254 0.842442 0.962921 1.023130 1.086711
74 1.082541 1.156062 1.089829 1.222321 1.357820 1.399883
74 1.256079 1.313660 1.323718 1.290387 1.251914 0.922988
74 0.896449 0.724527 0.551984 0.611260 0.506462 0.515053
74 0.374703 0.305816 0.305382 0.301440 0.406879 0.405572
74 0.540627 0.862853 1.159922 1.338137 1.819175 1.524586
74 1.466173 1.424273 1.634077 1.350261 1.221615 1.206045
74 1.081789 0.976148 1.060319 1.089066 1.078825 1.012218
74 0.928989 0.756387 1.020186 0.967547 1.048653 1.145798
74 1.226135 1.185822 1.241812 1.198049 1.303441 1.217312
74 1.225126 1.209619 1.283774 1.376499 1.504414 1.096456
74 0.802914 0.782877 0.585562 0.510579 0.508394 0.412359
74 0.407119 0.327419 0.302361 0.358827 0.402160 0.402968
74 0.511373 0.844183 1.100978 1.299118 1.592110 1.441165
74 1.611204 1.676759 1.572853 1.290613 1.210533 1.224236
74 1.064686 1.005992 1.047753 0.924277 0.967901 0.892661
74 0.824895 0.821192 0.948777 0.948639 0.929667 1.032517
74 0.955785 1.080102 1.406359 1.249287 1.376093 1.299750
74 1.336210 1.371871 1.185120 1.266775 1.351571 1.011346
74 0.859216 0.693432 0.612913 0.561706 0.550696 0.476089
74 0.398014 0.362968 0.316899 0.306538 0.480844 0.459425
74 0.493271 0.841732 1.327138 1.446725 1.693485 1.771570
74 1.470102 1.484478 1.610569 1.460674 1.396075 1.180254
74 1.074568 0.867109 0.908320 1.007318 1.065965 0.994231
74 0.890767 0.862475 0.915637 0.950634 1.112364 1.064289
74 0.969650 1.030603 1.345801 1.140472 1.379508 1.278543
74 1.282345 1.288767 1.427024 1.250326 1.196801 0.947811
74 0.914882 0.741135 0.611479 0.599353 0.502207 0.468745
74 0.452752 0.288861 0.289060 0.387929 0.429956 0.424282
74 0.533306 0.838409 1.356633 1.511266 1.630703 1.648433
74 1.624687 1.415270 1.592481 1.394040 1.489479 1.185686
74 1.137041 1.052501 0.949955 1.083191 1.152405 0.952577
74 0.878366 0.856602 0.763750 0.931284 1.020080 1.140731
74 1.184484 1.109184 1.173425 1.371516 1.281960 1.253283
74 1.444822 1.410884 1.301954 1.209594 1.006859 1.131037
74 0.835461 0.599302 0.676071 0.567012 0.454440 0.413319
74 0.427871 0.306590 0.331108 0.365374 0.417171 0.415471
74 0.507658 0.874584 1.156408 1.477021 1.696249 1.701046
74 1.447042 1.497195 1.530336 1.362758 1.484564 1.155385
74 1.085725 1.095672 1.026443 0.991876 0.939481 0.976709
74 0.974815 0.915434 0.843971 1.075985 0.884274 0.918771
74 1.184529 1.168146 1.147248 1.147779 1.541363 1.318834
74 1.355557 1.335877 1.345220 1.324788 1.270313 1.047661
74 0.879002 0.611912 0.562545 0.550760 0.541801 0.479734
74 0.389098 0.296428 0.233343 0.380285 0.381145 0.388003
74 0.505263 0.725160 1.166421 1.704398 1.664690 1.674515
74 1.397441 1.839567 1.329265 1.625386 1.080034 1.327022
74 1.242389 0.964067 1.033806 1.047493 0.934896 0.843142
74 0.805124 0.919801 0.893872 0.902074 1.077341 1.094723
74 1.033519 1.037153 1.250233 1.204254 1.310317 1.471362
74 1.352242 1.212882 1.316709 1.173135 1.354418 1.031558
74 0.914923 0.728434 0.607644 0.454605 0.442143 0.441229
74 0.410222 0.326116 0.277028 0.310640 0.387150 0.387359
74 0.520513 0.795702 1.257860 1.397149 1.567237 1.582412
74 1.499857 1.637628 1.402368 1.349952 1.292396 1.069093
74 1.071406 0.973406 0.968948 0.998728 0.936007 0.936913
74 0.994224 0.879824 0.982459 0.970910 1.061933 0.986789
74 1.109232 1.159708 1.141188 1.175538 1.145012 1.462983
74 1.198870 1.443050 1.251381 1.182294 1.259762 1.025543
74 1.027012

[CURVES]
;ID         X-Value      Y-Value     

[CONTROLS]

[RULES]

[ENERGY]
GLOBAL EFFICIENCY      75.0000
GLOBAL PRICE           0.0000
DEMAND CHARGE          0.0000

[EMITTERS]
;ID        Flow coefficient

[QUALITY]

[SOURCES]
;Node      Type       Quality    Pattern   

[REACTIONS]
;Type           Pipe/Tank               Coefficient

 ORDER BULK 1
 ORDER TANK 1
 ORDER WALL 1
 GLOBAL BULK 0.0000    
 GLOBAL WALL 0.0000    
 LIMITING POTENTIAL 0.0000    
 ROUGHNESS CORRELATION 0.0000    

[MIXING]
;Tank ID             Model Fraction

[TIMES]
DURATION             672:00:00
HYDRAULIC TIMESTEP   00:30:00
QUALITY TIMESTEP     00:05:00
PATTERN TIMESTEP     00:30:00
PATTERN START        00:00:00
REPORT TIMESTEP      00:30:00
REPORT START         00:00:00
START CLOCKTIME      00:00:00 AM
RULE TIMESTEP        00:06:00
STATISTIC            NONE      

[REPORT]
 Status             	No
 Summary            	No
 Page               	0
 Nodes					ALL
 Links					ALL
 Flow					Yes
 Headloss				No
 Velocity 				No
 Demand 				Yes
 Head 					Yes
 Pressure 				Yes
 Quality 				No
 State 					Yes

[OPTIONS]
UNITS                CMH                 
HEADLOSS             H-W                 
SPECIFIC GRAVITY     1
VISCOSITY            1
TRIALS               40
ACCURACY             0.001
CHECKFREQ            2
MAXCHECK             10
UNBALANCED           CONTINUE 10
DEMAND MULTIPLIER    1
DEMAND MODEL         PDA
MINIMUM PRESSURE     0.00
REQUIRED PRESSURE    0.10
PRESSURE EXPONENT    0.5
EMITTER EXPONENT     0.5
QUALITY              NONE                
DIFFUSIVITY          1
TOLERANCE            0.01

[COORDINATES]
;Node      X-Coord    Y-Coord   
1                4000.000000000       7000.000000000
2                5000.000000000       7000.000000000
3                4000.000000000       6000.000000000
4                5000.000000000       6000.000000000
5                4000.000000000       5000.000000000
6                5000.000000000       5000.000000000
7                6000.000000000       7000.000000000

[VERTICES]
;Link      X-Coord    Y-Coord   

[LABELS]

[BACKDROP]
DIMENSIONS    2900.000    4900.000    5100.000    7100.000
UNITS    METERS
OFFSET    0.00    0.00

[END]
