; Filename: D:/OneDrive/IHE_HI/015. Thesis/Github_repositories\Msc-Thesis/INP_FILES/Twoloops_Base_WNTR.inp
; WNTR: 0.4.2
; Created: 2023-03-07 09:38:49
[TITLE]

[JUNCTIONS]
;ID                      Elevation       Demand Pattern                 
 1                                160             100 59                         ;
 2                                150             100 59                         ;
 3                                150             270 59                         ;
 4                                155             120 59                         ;
 5                                160             200 59                         ;
 6                                165             330 59                         ;

[RESERVOIRS]
;ID                                   Head                  Pattern
 7                                210                            ;

[TANKS]
;ID                              Elevation           Init Level            Min Level            Max Level             Diameter           Min Volume Volume Curve         Overflow            

[PIPES]
;ID                   Node1                Node2                              Length             Diameter            Roughness           Minor Loss               Status
 1                    2                    1                               1000             200             130               0                 Open   ;
 2                    1                    3                               1000             150             130               0                 Open   ;
 3                    2                    4                               1000             450             130               0                 Open   ;
 4                    4                    3                               1000             150             130               0                 Open   ;
 5                    5                    3                               1000             150             130               0                 Open   ;
 6                    4                    6                               1000             400             130               0                 Open   ;
 7                    6                    5                               1000             250             130               0                 Open   ;
 8                    7                    2                               1000             450             130               0                 Open   ;

[PUMPS]
;ID                   Node1                Node2                Properties          

[VALVES]
;ID                   Node1                Node2                            Diameter Type              Setting           Minor Loss

[TAGS]
;type      name       tag       

[DEMANDS]
;ID        Demand     Pattern   

[STATUS]
;ID        Setting   

[PATTERNS]
;ID        Multipliers

59 1.058765 0.739380 0.658724 0.659868 0.593378 0.413056
59 0.438004 0.324760 0.296903 0.362499 0.405762 0.460968
59 0.538052 0.826972 1.253264 1.515882 1.839053 1.594339
59 1.650091 1.426424 1.117052 1.500819 1.412377 1.104372
59 1.349673 0.882028 1.004576 0.984755 1.153278 1.093838
59 0.913945 0.914984 0.820099 0.757592 0.965209 1.068413
59 1.235332 1.285379 1.153521 1.220331 1.163688 1.121056
59 1.078185 1.556883 1.233745 1.214286 1.049665 1.164058
59 0.754749 0.695807 0.546272 0.559925 0.474460 0.403746
59 0.398873 0.343875 0.301996 0.358734 0.374627 0.387844
59 0.466377 0.787655 1.102422 1.213700 1.628388 1.562334
59 1.339168 1.631808 1.363905 1.416059 1.394782 1.208291
59 1.225334 0.904688 1.040234 0.934816 0.912920 0.898499
59 0.871960 0.886595 0.795137 1.029826 1.046566 0.890358
59 1.263708 1.364953 1.341454 1.235731 1.160802 1.444369
59 1.247587 1.462000 1.327076 1.393943 1.242764 1.156398
59 0.900945 0.837895 0.607615 0.560738 0.594158 0.396095
59 0.349181 0.361717 0.264806 0.415879 0.383455 0.372361
59 0.596147 0.937994 1.424107 1.599845 1.462204 1.938641
59 1.557119 1.684785 1.642088 1.386904 1.379830 1.302916
59 1.141407 0.918666 1.029824 1.136647 0.930543 0.939434
59 0.860836 1.044682 0.960507 0.983217 0.923008 1.108693
59 1.025823 1.151068 1.123698 1.343493 1.374957 1.279379
59 1.351481 1.160349 1.106137 1.325717 1.220001 1.148671
59 1.114483 0.778078 0.545231 0.599283 0.434205 0.436664
59 0.397270 0.386248 0.277657 0.319425 0.396062 0.375741
59 0.556332 0.728797 1.062304 1.402708 1.520315 1.941810
59 1.751907 1.573286 1.316185 1.527690 1.169972 1.008629
59 1.230683 1.064852 1.092086 1.035525 1.085683 0.891616
59 0.806918 0.941735 0.827693 0.879580 0.954447 1.053804
59 1.061061 0.989652 1.122766 0.978585 1.381280 1.097271
59 1.156430 1.309543 1.203857 1.465868 1.044857 1.108926
59 0.896465 0.627888 0.631397 0.529821 0.538590 0.495495
59 0.486529 0.373823 0.288925 0.339867 0.443986 0.428812
59 0.532007 0.684921 1.197081 1.358670 1.644788 1.611757
59 1.745629 1.609106 1.617949 1.343035 1.177222 1.143990
59 1.098128 1.071273 1.225931 0.999298 0.904405 0.920708
59 0.858276 0.924093 0.761328 0.950699 1.015651 1.076390
59 1.034295 1.120116 1.029113 1.196294 1.229428 1.360956
59 1.149696 1.404517 1.494283 1.007047 1.251151 1.153194
59 0.842631 0.682688 0.592027 0.523015 0.484549 0.381069
59 0.446093 0.365351 0.275599 0.297141 0.420843 0.379270
59 0.507098 0.790941 1.282985 1.568849 1.483904 1.402559
59 1.346730 1.654828 1.321671 1.337344 1.222479 1.186634
59 0.887009 1.051624 1.052389 1.012413 0.968911 0.962994
59 0.935914 0.637199 1.076032 0.981576 0.934759 1.010838
59 1.154312 1.134094 0.956318 1.518162 1.285630 1.439891
59 1.210034 1.502898 1.337225 1.347236 1.074570 1.210896
59 0.962084 0.803484 0.562315 0.513138 0.615196 0.409268
59 0.394562 0.367240 0.302932 0.368500 0.384022 0.417334
59 0.434674 0.952506 1.185820 1.367156 1.706621 1.552741
59 1.386519 1.349593 1.604066 1.386261 1.282619 1.321470
59 0.976049 0.956723 0.961512 1.013008 0.995783 0.926344
59 0.894454 0.872183 0.835236 0.867918 1.027452 0.958244
59 0.972691 1.111583 1.181080 1.542352 1.208389 1.429841
59 1.397134 1.147857 1.400523 1.119575 0.880899 1.145570
59 1.058765

[CURVES]
;ID         X-Value      Y-Value     

[CONTROLS]

[RULES]

[ENERGY]
GLOBAL EFFICIENCY      75.0000
GLOBAL PRICE           0.0000
DEMAND CHARGE          0.0000

[EMITTERS]
;ID        Flow coefficient

[QUALITY]

[SOURCES]
;Node      Type       Quality    Pattern   

[REACTIONS]
;Type           Pipe/Tank               Coefficient

 ORDER BULK 1
 ORDER TANK 1
 ORDER WALL 1
 GLOBAL BULK 0.0000    
 GLOBAL WALL 0.0000    
 LIMITING POTENTIAL 0.0000    
 ROUGHNESS CORRELATION 0.0000    

[MIXING]
;Tank ID             Model Fraction

[TIMES]
DURATION             168:00:00
HYDRAULIC TIMESTEP   00:30:00
QUALITY TIMESTEP     00:05:00
PATTERN TIMESTEP     00:30:00
PATTERN START        00:00:00
REPORT TIMESTEP      00:30:00
REPORT START         00:00:00
START CLOCKTIME      00:00:00 AM
RULE TIMESTEP        00:06:00
STATISTIC            NONE      

[REPORT]
 Status             	No
 Summary            	No
 Page               	0
 Nodes					ALL
 Links					ALL
 Flow					Yes
 Headloss				No
 Velocity 				No
 Demand 				Yes
 Head 					Yes
 Pressure 				Yes
 Quality 				No
 State 					Yes

[OPTIONS]
UNITS                CMH                 
HEADLOSS             H-W                 
SPECIFIC GRAVITY     1
VISCOSITY            1
TRIALS               40
ACCURACY             0.001
CHECKFREQ            2
MAXCHECK             10
UNBALANCED           CONTINUE 10
DEMAND MULTIPLIER    1
DEMAND MODEL         PDA
MINIMUM PRESSURE     0.00
REQUIRED PRESSURE    0.10
PRESSURE EXPONENT    0.5
EMITTER EXPONENT     0.5
QUALITY              NONE                
DIFFUSIVITY          1
TOLERANCE            0.01

[COORDINATES]
;Node      X-Coord    Y-Coord   
1                4000.000000000       7000.000000000
2                5000.000000000       7000.000000000
3                4000.000000000       6000.000000000
4                5000.000000000       6000.000000000
5                4000.000000000       5000.000000000
6                5000.000000000       5000.000000000
7                6000.000000000       7000.000000000

[VERTICES]
;Link      X-Coord    Y-Coord   

[LABELS]

[BACKDROP]
DIMENSIONS    2900.000    4900.000    5100.000    7100.000
UNITS    METERS
OFFSET    0.00    0.00

[END]
