; Filename: D:/OneDrive/IHE_HI/015. Thesis/Github_repositories\Msc-Thesis/INP_FILES/Twoloops_Base_WNTR.inp
; WNTR: 0.4.2
; Created: 2023-03-07 09:40:22
[TITLE]

[JUNCTIONS]
;ID                      Elevation       Demand Pattern                 
 1                                160             100 69                         ;
 2                                150             100 69                         ;
 3                                150             270 69                         ;
 4                                155             120 69                         ;
 5                                160             200 69                         ;
 6                                165             330 69                         ;

[RESERVOIRS]
;ID                                   Head                  Pattern
 7                                210                            ;

[TANKS]
;ID                              Elevation           Init Level            Min Level            Max Level             Diameter           Min Volume Volume Curve         Overflow            

[PIPES]
;ID                   Node1                Node2                              Length             Diameter            Roughness           Minor Loss               Status
 1                    2                    1                               1000             200             130               0                 Open   ;
 2                    1                    3                               1000             150             130               0                 Open   ;
 3                    2                    4                               1000             450             130               0                 Open   ;
 4                    4                    3                               1000             150             130               0                 Open   ;
 5                    5                    3                               1000             150             130               0                 Open   ;
 6                    4                    6                               1000             400             130               0                 Open   ;
 7                    6                    5                               1000             250             130               0                 Open   ;
 8                    7                    2                               1000             450             130               0                 Open   ;

[PUMPS]
;ID                   Node1                Node2                Properties          

[VALVES]
;ID                   Node1                Node2                            Diameter Type              Setting           Minor Loss

[TAGS]
;type      name       tag       

[DEMANDS]
;ID        Demand     Pattern   

[STATUS]
;ID        Setting   

[PATTERNS]
;ID        Multipliers

69 0.995259 0.813002 0.752681 0.734510 0.667232 0.531910
69 0.569798 0.513850 0.496903 0.492096 0.461752 0.469074
69 0.418265 0.366558 0.338533 0.311846 0.326893 0.313352
69 0.354743 0.360570 0.338728 0.417189 0.423315 0.408193
69 0.568093 0.580807 0.819274 1.002821 1.310360 1.470814
69 1.480572 1.583891 1.514773 1.431212 1.593755 1.632523
69 1.718108 1.695097 1.523386 1.505597 1.405630 1.333643
69 1.264519 1.513885 1.260247 1.212626 1.103237 1.197364
69 0.993483 1.048710 0.976684 1.034408 0.969352 0.928525
69 1.001842 1.031848 1.003991 0.998903 0.917407 0.904339
69 0.863687 0.866564 0.838629 0.794942 0.909581 0.897791
69 0.852318 0.999108 0.945562 1.029842 1.097984 1.084635
69 1.175200 1.040225 1.175115 1.124478 1.137303 1.186807
69 1.234849 1.287373 1.209118 1.377578 1.343101 1.182855
69 1.416084 1.448491 1.394886 1.289498 1.216481 1.370873
69 1.239198 1.331566 1.214996 1.214134 1.103177 1.040515
69 0.900567 0.879013 0.716345 0.663074 0.667793 0.519350
69 0.497976 0.548721 0.464806 0.536271 0.446434 0.412080
69 0.446151 0.396227 0.366700 0.322345 0.284498 0.353616
69 0.342603 0.398344 0.422734 0.397712 0.417270 0.450856
69 0.511293 0.594360 0.831651 1.094925 1.149991 1.339515
69 1.428633 1.720593 1.664540 1.663959 1.552541 1.669680
69 1.535264 1.584056 1.500130 1.595646 1.551893 1.439634
69 1.442213 1.266375 1.183682 1.278192 1.204835 1.187586
69 1.257288 1.122466 0.975609 1.078694 0.921046 0.971639
69 0.999430 1.109411 0.955315 0.932448 0.948071 0.887658
69 0.960838 0.828283 0.820944 0.863498 0.873106 1.026475
69 0.998539 0.977222 0.926474 1.078654 0.988834 0.976547
69 1.178410 1.144826 1.210812 1.195087 1.261692 1.181483
69 1.180285 1.335520 1.237334 1.252867 1.270883 1.304321
69 1.272388 1.193257 1.252438 1.129669 1.348768 1.165371
69 1.185769 1.244456 1.146751 1.253110 0.996299 1.014191
69 0.897879 0.738296 0.733253 0.640793 0.627784 0.592962
69 0.609036 0.560144 0.488925 0.473366 0.488000 0.448391
69 0.415363 0.328596 0.329269 0.292187 0.305039 0.315389
69 0.367217 0.387279 0.418872 0.390211 0.379637 0.416706
69 0.499489 0.650811 0.927787 1.011640 1.131172 1.323592
69 1.426130 1.593492 1.452083 1.630415 1.643019 1.639882
69 1.542658 1.558467 1.426371 1.488023 1.451142 1.494246
69 1.311015 1.418781 1.416570 1.090687 1.223414 1.190461
69 1.057929 1.036948 1.023910 0.992877 0.981459 0.898823
69 1.072924 1.071159 0.951198 0.894775 0.983521 0.892522
69 0.907665 0.868702 0.918225 0.923760 0.860818 0.843609
69 0.854997 1.007717 0.928668 0.995423 1.014327 1.072911
69 0.972206 1.136187 1.183483 1.178883 1.177616 1.236694
69 1.288501 1.069607 1.452561 1.337528 1.255449 1.272391
69 1.338512 1.291489 1.144019 1.465044 1.291378 1.368222
69 1.217187 1.354933 1.220617 1.188824 1.012345 1.070735
69 0.937250 0.855956 0.684140 0.628771 0.682941 0.529105
69 0.534671 0.553932 0.502932 0.497062 0.446823 0.441008
69 0.368643 0.400105 0.327413 0.293248 0.311995 0.308487
69 0.320326 0.349337 0.416651 0.397602 0.399213 0.454843
69 0.466195 0.608438 0.798164 1.019953 1.196964 1.328384
69 1.461510 1.538779 1.530918 1.545020 1.654544 1.530895
69 1.488894 1.551412 1.544877 1.741040 1.436577 1.540362
69 1.471897 1.258578 1.360314 1.156898 1.002577 1.185615
69 0.984111 1.091010 0.989779 1.111602 1.064111 0.972130
69 0.962123 0.932713 0.973545 0.964594 0.932836 0.933151
69 0.931240 0.904252 0.841221 0.810292 0.973685 0.881912
69 0.907749 0.941716 0.889416 0.997200 1.021691 1.116367
69 1.146098 1.123716 1.211569 1.196581 1.198871 1.241381
69 1.243978 1.252653 1.279117 1.218484 1.328581 1.225315
69 1.365647 1.281083 1.306616 1.342196 1.350179 1.167802
69 1.254153 1.306089 1.077736 1.173577 0.933911 0.936957
69 0.902086 0.715020 0.668894 0.590280 0.659333 0.570610
69 0.557417 0.511631 0.489397 0.433684 0.449779 0.411717
69 0.420590 0.388816 0.358767 0.321364 0.289224 0.296016
69 0.364219 0.388170 0.357555 0.410008 0.422110 0.428727
69 0.494448 0.605499 0.746119 1.062912 1.177744 1.332717
69 1.619441 1.612357 1.635599 1.638095 1.776183 1.784221
69 1.689232 1.636268 1.363623 1.544794 1.488290 1.466072
69 1.488451 1.132479 1.255594 1.265528 1.159491 1.046741
69 1.157352 1.079916 0.972000 1.030035 1.049295 0.999632
69 1.051743 1.010718 0.976286 0.912847 0.948787 0.935236
69 0.947295 0.879554 0.905840 0.835469 0.857738 0.913875
69 0.884943 1.019958 1.027788 1.043834 1.073356 1.206821
69 1.069055 0.975068 1.161136 1.169101 1.162739 1.157300
69 1.225212 1.297009 1.260780 1.496114 1.231296 1.240951
69 1.121488 1.320173 1.145135 1.261378 1.278498 1.234400
69 1.402411 1.314591 1.294978 1.086202 1.153221 1.027903
69 0.941656 0.842979 0.672168 0.630974 0.631053 0.475010
69 0.588015 0.535770 0.498629 0.486618 0.429505 0.422370
69 0.426407 0.392242 0.383096 0.304369 0.288146 0.307468
69 0.326933 0.378270 0.409186 0.400621 0.428915 0.421213
69 0.489576 0.614142 0.736996 0.918808 1.115101 1.457195
69 1.545731 1.676519 1.472108 1.432398 1.563270 1.634412
69 1.647874 1.680449 1.586234 1.693744 1.479965 1.377986
69 1.266637 1.282970 1.318885 1.178953 1.259952 1.240940
69 0.943607 1.117340 0.893444 1.035293 1.073492 1.003203
69 0.926486 0.970658 0.984301 0.970369 0.942094 0.918364
69 0.911528 0.821447 0.868841 0.967577 0.879229 0.895470
69 1.005839 0.822846 1.070883 0.987718 1.062312 1.082526
69 1.162203 1.105424 1.100737 1.263977 1.029779 1.231009
69 1.156601 1.224421 1.456878 1.303442 1.321888 1.163677
69 1.243135 1.315887 1.330476 1.351820 1.300673 1.330071
69 1.304494 1.104378 1.202664 1.199770 1.118309 0.976405
69 0.856496 0.740668 0.705342 0.691475 0.529735 0.542671
69 0.502202 0.542983 0.483371 0.466702 0.451836 0.442958
69 0.390583 0.297391 0.340500 0.313779 0.296048 0.296622
69 0.355551 0.388693 0.388719 0.396225 0.379982 0.422639
69 0.453487 0.652269 0.770736 1.028701 1.098771 1.303797
69 1.457209 1.394430 1.611054 1.587300 1.457568 1.490882
69 1.658092 1.665991 1.547288 1.570651 1.520146 1.486687
69 1.517438 1.232715 1.352764 1.216816 1.176854 1.123251
69 1.075240 0.984116 1.043493 1.112293 0.996632 0.999232
69 0.962155 0.998903 1.027970 0.959303 0.927737 0.946827
69 0.850428 0.899089 0.925037 0.959153 0.895119 0.995457
69 1.003357 0.914010 0.926924 1.007857 1.116910 1.071638
69 1.060357 1.228095 1.167167 1.009385 1.222836 1.267873
69 1.275406 1.317669 1.294753 1.203555 1.277534 1.229029
69 1.227246 1.201988 1.338115 1.311228 1.265043 1.239071
69 1.268133 1.320903 1.055696 1.172861 1.044717 0.885326
69 0.794932 0.750459 0.720295 0.662727 0.566197 0.599522
69 0.585093 0.530883 0.482258 0.512665 0.478544 0.453882
69 0.384245 0.302011 0.371632 0.276176 0.299356 0.362576
69 0.355108 0.401691 0.363942 0.358627 0.389579 0.455176
69 0.489613 0.605996 0.826736 1.080050 1.095964 1.253477
69 1.397518 1.650469 1.622543 1.832039 1.719191 1.613945
69 1.721447 1.601100 1.493666 1.595971 1.437331 1.432453
69 1.520971 1.347022 1.237355 1.210664 1.266039 1.106071
69 1.074467 1.029745 1.043529 0.987557 0.903890 0.946120
69 0.947374 1.081040 1.048760 1.015667 0.924787 0.879209
69 0.872594 0.829774 1.013742 0.767326 0.930456 0.849064
69 0.938808 0.914489 0.929342 0.956408 1.162736 1.067718
69 1.049464 1.160926 1.148128 1.223323 1.068654 1.251906
69 1.316713 1.155134 1.334959 1.439947 1.305430 1.367170
69 1.352304 1.245340 1.305855 1.181010 1.264798 1.309856
69 1.325014 1.242406 1.251839 1.071029 1.073492 0.999352
69 0.999878 0.783738 0.689646 0.648287 0.566912 0.571578
69 0.527261 0.462825 0.498242 0.471114 0.412956 0.429691
69 0.435745 0.375283 0.341858 0.281117 0.308584 0.320083
69 0.359255 0.389683 0.367365 0.400448 0.384142 0.425933
69 0.473078 0.686446 0.774923 0.959508 1.205370 1.264299
69 1.429557 1.471626 1.735473 1.700831 1.622121 1.579386
69 1.690328 1.619475 1.606238 1.531001 1.348059 1.448016
69 1.363732 1.407710 1.378924 1.196197 1.226429 1.263148
69 1.055931 1.169468 0.979340 1.012332 0.999331 1.000004
69 0.953101 0.970310 0.959937 1.000344 0.972590 1.047927
69 0.974033 0.858578 0.898828 0.939848 0.901652 0.916124
69 0.947646 1.022701 0.949101 1.006582 1.081658 1.096418
69 1.115812 1.098535 1.214370 1.322800 1.229262 1.215258
69 1.315432 1.241545 1.241524 1.309511 1.104115 1.212742
69 1.272859 1.194940 1.222030 1.269411 1.171849 1.257890
69 1.229133 1.242465 1.283101 1.158797 1.081447 1.004153
69 0.912279 0.745506 0.706036 0.659452 0.550653 0.594391
69 0.574044 0.498915 0.492760 0.454958 0.477006 0.403958
69 0.394661 0.345147 0.330759 0.272813 0.323876 0.298895
69 0.349453 0.375200 0.381709 0.380062 0.425053 0.413743
69 0.508135 0.605734 0.785305 1.042949 1.266989 1.337433
69 1.341782 1.734410 1.517771 1.474015 1.881116 1.578143
69 1.459674 1.516204 1.594025 1.550920 1.423344 1.617290
69 1.364655 1.258924 1.374934 1.344670 1.134394 1.047809
69 1.168009 0.931780 0.956176 1.069621 0.996679 0.983489
69 1.024783 0.996773 0.922079 1.056215 1.029525 0.935849
69 0.902437 1.009999 0.867020 0.872982 0.919682 1.001183
69 1.035006 0.957034 1.018500 0.941754 1.032274 1.022041
69 1.033549 1.236813 1.092871 1.135258 1.226341 1.325250
69 1.294698 1.495473 1.294176 1.327226 1.328201 1.415142
69 1.339565 1.291479 1.228686 1.322690 1.409305 1.257557
69 1.310221 1.258895 1.262173 1.091547 1.232157 0.921586
69 0.880260 0.838628 0.723589 0.679700 0.582140 0.562507
69 0.539464 0.567385 0.520713 0.503221 0.439724 0.456509
69 0.405414 0.394232 0.369599 0.300098 0.292687 0.300810
69 0.345202 0.371334 0.408628 0.397963 0.393710 0.454506
69 0.471864 0.652871 0.797131 1.058291 1.299739 1.327070
69 1.505752 1.565365 1.523255 1.647716 1.655970 1.657416
69 1.580954 1.589972 1.452240 1.500462 1.550037 1.535920
69 1.373045 1.363772 1.317788 1.260415 1.231611 1.019205
69 1.096745 1.077504 0.970190 1.112477 1.009694 1.093055
69 0.955940 0.951230 1.013455 0.882280 0.966005 0.929852
69 0.954846 0.922925 0.859559 0.828399 0.992464 0.876245
69 0.885459 0.908839 1.067038 0.994679 1.004393 1.085198
69 1.086342 1.077753 1.199324 1.247617 1.270943 1.286085
69 1.288771 1.146336 1.430202 1.330619 1.354272 1.390119
69 1.411801 1.333198 1.336791 1.256703 1.302581 1.223227
69 1.215062 1.174061 1.188766 1.219120 1.285577 1.009546
69 0.827186 0.854200 0.698102 0.621794 0.607555 0.522982
69 0.546264 0.515810 0.502951 0.491255 0.459649 0.431852
69 0.406824 0.372971 0.309343 0.279494 0.298891 0.289984
69 0.350031 0.401452 0.414571 0.376199 0.381669 0.435632
69 0.487961 0.624245 0.846293 0.954132 1.171111 1.286765
69 1.375122 1.469106 1.665036 1.629300 1.541871 1.594924
69 1.442674 1.511473 1.760784 1.525108 1.565849 1.452126
69 1.438170 1.409190 1.213840 1.243048 1.305911 1.089395
69 1.062615 1.042658 1.048799 1.042779 1.076045 1.029264
69 0.999803 1.081997 1.042247 0.893053 1.098269 1.022633
69 0.890916 0.905753 0.951700 0.877631 0.939439 0.980939
69 0.887199 0.936984 1.055285 1.055028 1.110274 1.067745
69 1.080926 0.988738 1.068519 1.175973 1.259368 1.268695
69 1.248690 1.262127 1.316940 1.313072 1.416706 1.314403
69 1.184463 1.201248 1.421460 1.211970 1.359631 1.268542
69 1.256983 1.230589 1.287940 1.133656 1.077923 0.906514
69 0.911161 0.819237 0.721133 0.701762 0.601986 0.575179
69 0.592388 0.470333 0.486325 0.521360 0.483509 0.448989
69 0.419984 0.371042 0.362032 0.312655 0.304318 0.320283
69 0.352231 0.353663 0.418496 0.398304 0.446435 0.425278
69 0.512628 0.645751 0.786365 1.074586 1.337165 1.350452
69 1.440487 1.515759 1.418333 1.606921 1.652247 1.719705
69 1.692165 1.541526 1.533727 1.636815 1.484388 1.413241
69 1.526443 1.439629 1.301466 1.200992 1.048906 1.184475
69 1.040840 0.937172 1.130284 1.050243 0.931660 0.926501
69 1.055982 0.953000 1.077769 1.017386 0.984410 0.946907
69 0.910338 0.932462 0.857623 0.891367 0.940605 0.951045
69 0.876987 0.942928 1.015168 1.001509 1.163978 1.050917
69 1.089294 1.175328 1.170171 1.162440 1.145532 1.251752
69 1.336827 1.319931 1.239302 1.443130 1.193190 1.179224
69 1.374923 1.318172 1.259795 1.217647 1.481022 1.298361
69 1.310621 1.264235 1.231306 1.184093 1.127547 0.975724
69 0.884251 0.711004 0.677647 0.657989 0.637621 0.585352
69 0.528049 0.479258 0.416679 0.513452 0.441610 0.419820
69 0.403158 0.333212 0.322830 0.342843 0.309097 0.324096
69 0.315140 0.431206 0.365853 0.447748 0.351371 0.463241
69 0.548542 0.604859 0.837747 1.047527 1.141407 1.234128
69 1.350954 1.599023 1.591829 1.569256 1.722152 1.666654
69 1.527476 1.467088 1.608597 1.483950 1.508928 1.595735
69 1.451200 1.285142 1.312532 1.174177 1.308034 1.105451
69 1.113680 1.081883 1.042001 0.892141 0.913215 0.972192
69 1.022773 0.997678 0.942571 0.901721 0.930726 0.898474
69 0.927693 0.868330 0.913526 0.855154 0.886178 0.900757
69 0.900376 1.008577 0.951184 0.994510 1.047350 0.992523
69 1.078554 1.075515 1.120693 1.168445 1.142406 1.213274
69 1.357180 1.281063 1.389330 1.334109 1.367286 1.242409
69 1.308183 1.310999 1.254861 1.239214 1.183759 1.405042
69 1.195825 1.340779 1.166340 1.087573 1.120425 0.960394
69 0.930697 0.778086 0.731425 0.609846 0.629929 0.581586
69 0.509323 0.600791 0.516204 0.546266 0.501751 0.426541
69 0.390105 0.355092 0.293544 0.292961 0.304442 0.346304
69 0.332057 0.400159 0.369938 0.387323 0.391391 0.436748
69 0.513719 0.673078 0.854819 1.029009 1.228106 1.480479
69 1.421964 1.620742 1.426418 1.664337 1.580538 1.617600
69 1.699848 1.596655 1.642465 1.669004 1.535018 1.560286
69 1.381139 1.354590 1.259236 1.323293 1.222543 1.109181
69 1.110208 1.128654 1.029707 0.953381 1.007915 0.880562
69 1.049829 0.980563 0.971841 1.032646 0.875587 1.032460
69 0.874067 0.857865 0.935665 0.924502 1.032366 0.908310
69 0.937898 0.885832 0.980074 0.982203 1.023640 0.963669
69 1.209600 1.027972 0.954498 1.089044 1.156524 1.144706
69 1.341297 1.272438 1.301980 1.354803 1.329017 1.379456
69 1.213461 1.257825 1.354802 1.105333 1.192736 1.328059
69 1.233325 1.310252 1.258261 1.064479 1.106436 1.070169
69 0.907961 0.747377 0.748443 0.672142 0.619534 0.589315
69 0.442210 0.545969 0.554244 0.492846 0.463089 0.449457
69 0.408117 0.378132 0.329780 0.291661 0.281922 0.298256
69 0.319516 0.355698 0.442270 0.419609 0.387350 0.417210
69 0.503377 0.611307 0.820341 1.061531 1.197427 1.378901
69 1.544959 1.523462 1.627340 1.594100 1.624947 1.585838
69 1.549228 1.597515 1.612647 1.546871 1.544885 1.393306
69 1.306996 1.389169 1.353655 1.249085 1.289390 1.206302
69 1.276918 1.049470 0.970282 0.966046 0.966070 1.027857
69 0.873597 1.085581 0.985642 0.966570 0.891942 0.918123
69 0.900715 0.879191 0.899579 0.855421 0.851626 0.950235
69 0.950316 0.983617 1.063542 0.963654 0.997984 1.157495
69 1.002130 1.035198 1.203721 1.189421 1.207577 1.222747
69 1.260733 1.275958 1.405725 1.275717 1.293944 1.443239
69 1.302146 1.474720 1.294541 1.410523 1.170883 1.301189
69 1.149189 1.303430 1.112674 1.166454 1.061795 0.928830
69 0.812555 0.769596 0.785180 0.636056 0.633020 0.563109
69 0.567425 0.461718 0.487904 0.507622 0.453311 0.429191
69 0.389669 0.388997 0.335637 0.306533 0.311575 0.328454
69 0.352643 0.415322 0.398553 0.408144 0.386917 0.431065
69 0.547633 0.611776 0.761460 1.074867 1.189289 1.359436
69 1.462963 1.556103 1.681651 1.542473 1.528920 1.625596
69 1.445782 1.450786 1.734312 1.603101 1.499095 1.566144
69 1.320785 1.329594 1.348629 1.311912 1.229617 0.969567
69 1.036107 1.092675 1.010095 1.165021 1.055593 1.032777
69 0.936285 1.003864 1.014472 1.047485 1.004125 0.981757
69 0.850109 0.960713 0.808620 0.858279 0.923262 0.911695
69 0.887697 0.924197 0.907105 1.059411 1.131530 1.069823
69 1.073577 1.024216 1.210285 1.328248 1.070583 1.151059
69 1.207061 1.239606 1.317733 1.433522 1.385665 1.344200
69 1.243534 1.213181 1.240467 1.424652 1.295184 1.254737
69 1.255916 1.301954 1.105475 1.244292 1.090223 0.985240
69 0.923914 0.804344 0.696250 0.637640 0.568721 0.587296
69 0.521861 0.488807 0.504976 0.518564 0.456467 0.415688
69 0.409694 0.406187 0.301025 0.312736 0.303692 0.339367
69 0.368904 0.375788 0.359572 0.420873 0.382275 0.402949
69 0.534451 0.601559 0.885801 1.034648 1.222977 1.376569
69 1.322726 1.383679 1.620693 1.679605 1.635802 1.537628
69 1.601817 1.573255 1.470063 1.626701 1.344275 1.509352
69 1.441226 1.437362 1.221586 1.252937 1.348305 1.189442
69 1.106638 1.096633 1.037476 1.143832 1.059018 0.994181
69 1.018733 0.982406 1.072591 0.898326 0.861878 1.005371
69 1.016268 0.910557 0.887607 0.921765 0.865059 0.929421
69 0.946928 1.008661 0.906520 0.995410 1.105300 1.032677
69 1.034438 1.261114 1.150040 1.131929 1.078149 1.283313
69 1.311159 1.260050 1.214026 1.305014 1.241068 1.229304
69 1.291949 1.218506 1.322026 1.351125 1.234509 1.183458
69 1.388880 1.170585 1.152484 1.161585 1.118924 0.982846
69 0.924883 0.774839 0.669506 0.702866 0.689584 0.622540
69 0.543655 0.575604 0.510671 0.466511 0.470606 0.428985
69 0.376405 0.344287 0.345619 0.271853 0.310874 0.286237
69 0.303886 0.338115 0.447202 0.396719 0.404532 0.463597
69 0.528025 0.583207 0.859631 1.025419 1.175399 1.353620
69 1.579578 1.466422 1.638485 1.623309 1.452215 1.539499
69 1.618549 1.704105 1.653334 1.588357 1.426625 1.615408
69 1.426934 1.273424 1.285733 1.312329 1.193450 1.204872
69 1.172844 1.087797 0.979023 1.019156 1.002710 1.110799
69 0.905614 0.997856 0.964954 1.000824 0.814221 0.986301
69 0.900742 0.787643 0.862541 0.919195 0.814062 0.920146
69 0.884782 0.939687 1.001604 1.037943 1.022253 1.093922
69 1.153987 1.104661 1.245972 1.275542 1.169133 1.182455
69 1.132723 1.273306 1.271652 1.368029 1.188244 1.281269
69 1.375562 1.243557 1.243157 1.190400 1.504405 1.231480
69 1.170838 1.180739 1.144251 1.128388 1.133570 0.980330
69 0.850168 0.724804 0.711864 0.649110 0.655114 0.568177
69 0.535866 0.485870 0.490821 0.467629 0.447628 0.406598
69 0.412920 0.360791 0.325787 0.274284 0.308886 0.326528
69 0.330671 0.402623 0.367246 0.400919 0.395893 0.393454
69 0.505691 0.701340 0.820347 0.986035 1.232186 1.360224
69 1.469377 1.509207 1.736510 1.668725 1.576102 1.606870
69 1.528877 1.523333 1.499674 1.429049 1.569955 1.432396
69 1.455578 1.300766 1.295292 1.192230 1.244415 1.126946
69 1.051762 0.957633 1.049211 0.967972 0.999053 0.969831
69 1.060993 1.038838 1.026833 0.944829 0.980387 1.019577
69 0.855062 0.894829 0.794402 0.961208 0.878513 0.963165
69 0.847044 1.076961 0.978588 1.060254 1.061485 1.059808
69 1.211262 1.012371 1.167981 1.236734 1.197850 1.220792
69 1.247599 1.188542 1.302974 1.347144 1.311973 1.281668
69 1.261801 1.278755 1.401058 1.140367 1.303126 1.263949
69 1.380843 1.244704 1.306915 1.000770 1.109866 1.014970
69 0.975089 0.715752 0.704319 0.650024 0.582151 0.606288
69 0.528114 0.581868 0.531625 0.507663 0.473158 0.403894
69 0.389654 0.376406 0.343156 0.329703 0.291586 0.300884
69 0.366150 0.361584 0.420959 0.430343 0.413456 0.418051
69 0.501232 0.658994 0.817530 1.147984 1.128672 1.270335
69 1.380951 1.493963 1.390823 1.562888 1.563931 1.624970
69 1.640109 1.463387 1.643857 1.699225 1.481254 1.595566
69 1.425560 1.516972 1.387148 1.128502 1.194238 1.216366
69 1.102016 1.059918 1.110773 0.967882 1.001051 1.018719
69 0.983441 1.004779 1.046501 1.006577 0.907428 0.863216
69 0.857388 0.885737 0.873183 0.842527 0.867700 0.836065
69 0.968408 0.969782 0.924413 1.028405 1.136709 1.028522
69 1.186799 1.101659 1.161035 1.179539 1.300910 1.241197
69 1.172156 1.182127 1.180432 1.172692 1.310212 1.228031
69 1.293697 1.245625 1.242499 1.265962 1.354880 1.361180
69 1.298199 1.166897 1.246341 1.194333 1.097881 0.962045
69 0.938278 0.814082 0.577979 0.672493 0.531105 0.587539
69 0.534085 0.555697 0.497055 0.454716 0.453748 0.458863
69 0.400630 0.361405 0.344462 0.309584 0.299893 0.343261
69 0.380692 0.394031 0.393137 0.437501 0.431010 0.445644
69 0.463518 0.641706 0.780575 1.004535 1.217284 1.359773
69 1.425111 1.667039 1.437171 1.695410 1.446324 1.654478
69 1.514857 1.664354 1.567721 1.556201 1.408355 1.400598
69 1.426256 1.402711 1.528470 1.262012 1.262764 1.037130
69 1.012227 1.039611 0.957984 1.101099 0.975387 1.082189
69 1.093062 1.008576 1.030108 0.977795 0.984515 0.951269
69 0.893323 0.912505 0.972824 0.924732 0.917593 0.926856
69 0.887321 0.912197 1.019401 0.942290 1.003596 1.159064
69 1.226339 1.011164 1.259402 1.157785 1.198920 1.221143
69 1.339956 1.159286 1.335581 1.232845 1.351343 1.423566
69 1.299967 1.329745 1.334759 1.241032 1.417908 1.421312
69 1.323390 1.246029 1.166744 1.103814 1.190953 1.082909
69 0.896562 0.718678 0.590130 0.605369 0.595298 0.612530
69 0.517991 0.534266 0.539095 0.483968 0.453883 0.397550
69 0.371141 0.372986 0.325776 0.307973 0.299149 0.329899
69 0.331808 0.372394 0.445508 0.382181 0.395643 0.412109
69 0.513343 0.675370 0.792608 0.987959 1.179913 1.394620
69 1.401855 1.513814 1.372269 1.489592 1.616752 1.704480
69 1.628327 1.476805 1.428598 1.549482 1.351248 1.551092
69 1.414142 1.224557 1.224656 1.191238 1.137564 1.041729
69 1.042272 1.018648 0.988090 1.079357 1.006290 0.939760
69 0.983391 0.952904 0.982000 1.032635 0.968140 1.051236
69 0.920300 0.837122 0.924477 0.944254 0.959085 0.859568
69 0.936354 1.038131 0.898916 0.995879 0.961900 1.016082
69 1.033178 1.207760 1.131269 1.111916 1.125436 1.239960
69 1.257532 1.386520 1.339001 1.194662 1.257286 1.386610
69 1.251556 1.435903 1.216899 1.348358 1.232825 1.249882
69 1.353624 1.231115 1.258569 1.179496 1.128936 0.945002
69 0.888035 0.814150 0.674714 0.710759 0.572020 0.554872
69 0.506512 0.451874 0.553908 0.474376 0.445492 0.426285
69 0.434077 0.342829 0.343196 0.297951 0.289260 0.328051
69 0.368848 0.368327 0.381548 0.373286 0.429088 0.412471
69 0.444526 0.690167 0.749878 1.061644 1.213207 1.375000
69 1.415499 1.582723 1.439893 1.681557 1.779798 1.703137
69 1.406124 1.487672 1.542058 1.578211 1.490401 1.414712
69 1.459058 1.449921 1.281881 1.299827 1.008311 1.079647
69 1.078797 1.031130 1.052749 1.072430 1.030400 0.962007
69 0.911850 1.039612 0.889709 1.019539 0.942921 0.859239
69 0.915512 0.885518 0.879707 0.882312 0.922654 0.970996
69 0.972873 1.031150 0.997352 1.126337 1.088013 1.041195
69 1.027803 1.137334 1.057468 1.104175 1.217214 1.184665
69 1.187905 1.280395 1.305669 1.290798 1.276997 1.369768
69 1.326709 1.283114 1.495370 1.318732 1.388296 1.245907
69 1.166068 1.181640 1.180703 1.112752 1.166687 0.991007
69 0.924919 0.791726 0.692438 0.648933 0.661706 0.539007
69 0.563876 0.486637 0.486211 0.480367 0.466760 0.469821
69 0.398798 0.345481 0.342612 0.299045 0.304296 0.315045
69 0.307599 0.391636 0.414001 0.423765 0.445917 0.396583
69 0.515495 0.651962 0.796487 1.038376 1.235975 1.252816
69 1.488605 1.463446 1.537422 1.451292 1.581503 1.597596
69 1.652786 1.581122 1.415307 1.612732 1.489327 1.500572
69 1.490386 1.470937 1.452976 1.239962 1.215174 1.069979
69 1.170066 0.986749 0.920343 1.061308 0.968698 1.045939
69 1.028110 0.907608 0.836819 0.916545 0.954648 0.856690
69 0.864751 0.808143 0.890629 0.891626 0.874005 0.997084
69 1.029618 1.005086 0.892014 0.958595 1.077663 1.035715
69 1.067852 1.184059 1.182587 1.265125 1.169097 1.330960
69 1.216534 1.398485 1.308255 1.239461 1.178715 1.279386
69 1.280014 1.367475 1.294102 1.269749 1.384009 1.271911
69 1.226011 1.283344 1.164732 1.192262 1.041399 0.984844
69 0.908218 0.776118 0.710358 0.679136 0.614782 0.581349
69 0.518516 0.545094 0.520087 0.509207 0.437844 0.426965
69 0.415205 0.350608 0.325277 0.341051 0.335132 0.340860
69 0.367811 0.356804 0.412301 0.392796 0.376881 0.414170
69 0.503470 0.615437 0.790030 1.062409 1.210376 1.370584
69 1.476780 1.485960 1.468425 1.654516 1.578214 1.422222
69 1.562314 1.477426 1.625010 1.581402 1.544720 1.399682
69 1.470575 1.381250 1.268031 1.211486 1.256800 1.111490
69 1.120041 1.128169 1.150381 1.111864 1.054049 0.909022
69 0.962050 0.972912 1.099189 0.939931 0.975802 0.930054
69 0.849503 0.905961 0.902712 0.819977 0.966035 0.804797
69 0.911237 1.028808 0.928405 1.048218 0.970142 1.070298
69 0.947291 1.066666 1.041193 1.144393 1.170103 1.179813
69 1.318617 1.214775 1.349482 1.434700 1.317497 1.235904
69 1.202552 1.245162 1.357825 1.315741 1.373070 1.348894
69 1.280647 1.275817 1.333578 1.244346 1.060463 1.057471
69 0.931636 0.848074 0.739580 0.609613 0.541691 0.584456
69 0.600607 0.494426 0.494357 0.450418 0.490148 0.371758
69 0.345672 0.372089 0.328122 0.296927 0.294580 0.327479
69 0.339557 0.355033 0.377743 0.422843 0.389771 0.391708
69 0.503065 0.655616 0.882179 1.027471 1.152501 1.390092
69 1.530937 1.545135 1.595718 1.649601 1.620911 1.641622
69 1.501896 1.471903 1.481390 1.592497 1.523292 1.548845
69 1.392961 1.262262 1.389275 1.243958 1.284767 1.185041
69 1.244449 1.048261 1.087919 1.065006 0.966692 0.988973
69 0.915524 0.912509 1.007594 1.027778 0.990214 0.943320
69 0.946603 0.854334 0.867227 0.926036 0.923388 0.908367
69 1.019590 0.896757 0.968879 1.009185 1.103503 1.076460
69 1.016742 1.158110 1.222288 1.224678 1.244579 1.091240
69 1.190429 1.320161 1.295719 1.347916 1.207319 1.298147
69 1.191597 1.148098 1.325866 1.369474 1.319158 1.286750
69 1.150900 1.315463 1.196829 1.281775 1.141149 0.878106
69 0.940773 0.727414 0.678535 0.637716 0.596614 0.578521
69 0.505985 0.482758 0.518018 0.479882 0.462585 0.374644
69 0.395749 0.344453 0.311536 0.322637 0.280278 0.296453
69 0.341286 0.390314 0.378784 0.431172 0.437451 0.404623
69 0.492648 0.606605 0.734411 1.032650 1.252819 1.514811
69 1.387947 1.672920 1.728866 1.643532 1.686543 1.702094
69 1.789514 1.626362 1.554004 1.453719 1.527479 1.547439
69 1.429416 1.291838 1.306948 1.235709 1.211854 1.029929
69 1.136352 1.100219 1.059688 1.010711 0.891644 0.998156
69 1.067407 0.954077 0.880644 0.890411 0.971674 0.945142
69 0.947860 0.882735 0.802278 0.843243 0.944217 0.927724
69 0.981557 0.997476 0.987702 1.015924 1.169182 1.103085
69 1.091513 1.154161 1.162762 1.020870 1.246806 1.363841
69 1.199459 1.394985 1.279964 1.329952 1.390507 1.246667
69 1.396915 1.205800 1.234340 1.257149 1.351636 1.262934
69 1.154103 1.224456 1.143536 1.197251 1.057839 1.002436
69 0.995259

[CURVES]
;ID         X-Value      Y-Value     

[CONTROLS]

[RULES]

[ENERGY]
GLOBAL EFFICIENCY      75.0000
GLOBAL PRICE           0.0000
DEMAND CHARGE          0.0000

[EMITTERS]
;ID        Flow coefficient

[QUALITY]

[SOURCES]
;Node      Type       Quality    Pattern   

[REACTIONS]
;Type           Pipe/Tank               Coefficient

 ORDER BULK 1
 ORDER TANK 1
 ORDER WALL 1
 GLOBAL BULK 0.0000    
 GLOBAL WALL 0.0000    
 LIMITING POTENTIAL 0.0000    
 ROUGHNESS CORRELATION 0.0000    

[MIXING]
;Tank ID             Model Fraction

[TIMES]
DURATION             672:00:00
HYDRAULIC TIMESTEP   00:15:00
QUALITY TIMESTEP     00:05:00
PATTERN TIMESTEP     00:15:00
PATTERN START        00:00:00
REPORT TIMESTEP      00:15:00
REPORT START         00:00:00
START CLOCKTIME      00:00:00 AM
RULE TIMESTEP        00:06:00
STATISTIC            NONE      

[REPORT]
 Status             	No
 Summary            	No
 Page               	0
 Nodes					ALL
 Links					ALL
 Flow					Yes
 Headloss				No
 Velocity 				No
 Demand 				Yes
 Head 					Yes
 Pressure 				Yes
 Quality 				No
 State 					Yes

[OPTIONS]
UNITS                CMH                 
HEADLOSS             H-W                 
SPECIFIC GRAVITY     1
VISCOSITY            1
TRIALS               40
ACCURACY             0.001
CHECKFREQ            2
MAXCHECK             10
UNBALANCED           CONTINUE 10
DEMAND MULTIPLIER    1
DEMAND MODEL         PDA
MINIMUM PRESSURE     0.00
REQUIRED PRESSURE    0.10
PRESSURE EXPONENT    0.5
EMITTER EXPONENT     0.5
QUALITY              NONE                