; Filename: D:/OneDrive/IHE_HI/015. Thesis/Github_repositories\Msc-Thesis/INP_FILES/Twoloops_Base_WNTR.inp
; WNTR: 0.4.2
; Created: 2023-03-07 09:38:52
[TITLE]

[JUNCTIONS]
;ID                      Elevation       Demand Pattern                 
 1                                160             100 62                         ;
 2                                150             100 62                         ;
 3                                150             270 62                         ;
 4                                155             120 62                         ;
 5                                160             200 62                         ;
 6                                165             330 62                         ;

[RESERVOIRS]
;ID                                   Head                  Pattern
 7                                210                            ;

[TANKS]
;ID                              Elevation           Init Level            Min Level            Max Level             Diameter           Min Volume Volume Curve         Overflow            

[PIPES]
;ID                   Node1                Node2                              Length             Diameter            Roughness           Minor Loss               Status
 1                    2                    1                               1000             200             130               0                 Open   ;
 2                    1                    3                               1000             150             130               0                 Open   ;
 3                    2                    4                               1000             450             130               0                 Open   ;
 4                    4                    3                               1000             150             130               0                 Open   ;
 5                    5                    3                               1000             150             130               0                 Open   ;
 6                    4                    6                               1000             400             130               0                 Open   ;
 7                    6                    5                               1000             250             130               0                 Open   ;
 8                    7                    2                               1000             450             130               0                 Open   ;

[PUMPS]
;ID                   Node1                Node2                Properties          

[VALVES]
;ID                   Node1                Node2                            Diameter Type              Setting           Minor Loss

[TAGS]
;type      name       tag       

[DEMANDS]
;ID        Demand     Pattern   

[STATUS]
;ID        Setting   

[PATTERNS]
;ID        Multipliers

62 1.027012 0.619208 0.539150 0.471709 0.344821 0.368727
62 0.538004 1.185470 1.586788 1.652557 1.517285 1.451244
62 1.166971 1.009734 1.035509 0.924025 1.007574 0.983587
62 1.127550 1.118007 1.034489 1.367976 1.389901 1.128752
62 1.063422 0.530190 0.501830 0.394010 0.336787 0.447019
62 0.506198 1.236304 1.486363 1.346458 1.458251 1.316260
62 1.208266 1.096190 0.969014 0.878234 0.824504 0.886399
62 0.949848 1.387274 1.246996 1.254440 1.169709 1.274639
62 0.783799 0.589788 0.464181 0.412381 0.287741 0.362220
62 0.498873 1.241120 1.608514 1.638716 1.423881 1.262275
62 1.040823 0.971236 0.934948 0.775708 0.912775 0.967858
62 0.956543 1.244427 1.205641 1.305402 1.375825 1.212382
62 0.982037 0.540728 0.516094 0.378086 0.279101 0.381477
62 0.487538 1.205392 1.450861 1.715306 1.555879 1.140231
62 1.230966 1.151671 1.094302 0.887045 0.822906 1.084356
62 1.064520 1.317355 1.321661 1.401570 1.337062 1.267831
62 0.900756 0.685722 0.505076 0.412864 0.345196 0.356872
62 0.449181 1.293062 1.449840 1.848784 1.450366 1.222265
62 1.269219 1.118441 1.149405 0.965235 0.837992 1.152805
62 1.076416 1.277036 1.398514 1.283879 1.363864 1.288532
62 0.927103 0.547229 0.511930 0.442444 0.283330 0.395212
62 0.482594 1.377529 1.686054 1.652155 1.407610 1.356082
62 1.040659 1.002546 0.949132 0.948703 0.941515 0.983336
62 1.134849 1.095066 1.144909 1.345697 1.317334 1.260963
62 1.071586 0.645335 0.463487 0.435745 0.268418 0.385229
62 0.497270 1.364481 1.504671 1.494216 1.488186 1.230998
62 1.199144 0.913605 0.908203 0.868477 0.864142 1.154363
62 1.183549 1.208405 1.172555 1.387814 1.195978 1.051702
62 1.027012

[CURVES]
;ID         X-Value      Y-Value     

[CONTROLS]

[RULES]

[ENERGY]
GLOBAL EFFICIENCY      75.0000
GLOBAL PRICE           0.0000
DEMAND CHARGE          0.0000

[EMITTERS]
;ID        Flow coefficient

[QUALITY]

[SOURCES]
;Node      Type       Quality    Pattern   

[REACTIONS]
;Type           Pipe/Tank               Coefficient

 ORDER BULK 1
 ORDER TANK 1
 ORDER WALL 1
 GLOBAL BULK 0.0000    
 GLOBAL WALL 0.0000    
 LIMITING POTENTIAL 0.0000    
 ROUGHNESS CORRELATION 0.0000    

[MIXING]
;Tank ID             Model Fraction

[TIMES]
DURATION             168:00:00
HYDRAULIC TIMESTEP   01:00:00
QUALITY TIMESTEP     00:05:00
PATTERN TIMESTEP     01:00:00
PATTERN START        00:00:00
REPORT TIMESTEP      01:00:00
REPORT START         00:00:00
START CLOCKTIME      00:00:00 AM
RULE TIMESTEP        00:06:00
STATISTIC            NONE      

[REPORT]
 Status             	No
 Summary            	No
 Page               	0
 Nodes					ALL
 Links					ALL
 Flow					Yes
 Headloss				No
 Velocity 				No
 Demand 				Yes
 Head 					Yes
 Pressure 				Yes
 Quality 				No
 State 					Yes

[OPTIONS]
UNITS                CMH                 
HEADLOSS             H-W                 
SPECIFIC GRAVITY     1
VISCOSITY            1
TRIALS               40
ACCURACY             0.001
CHECKFREQ            2
MAXCHECK             10
UNBALANCED           CONTINUE 10
DEMAND MULTIPLIER    1
DEMAND MODEL         PDA
MINIMUM PRESSURE     0.00
REQUIRED PRESSURE    0.10
PRESSURE EXPONENT    0.5
EMITTER EXPONENT     0.5
QUALITY              NONE                
DIFFUSIVITY          1
TOLERANCE            0.01

[COORDINATES]
;Node      X-Coord    Y-Coord   
1                4000.000000000       7000.000000000
2                5000.000000000       7000.000000000
3                4000.000000000       6000.000000000
4                5000.000000000       6000.000000000
5                4000.000000000       5000.000000000
6                5000.000000000       5000.000000000
7                6000.000000000       7000.000000000

[VERTICES]
;Link      X-Coord    Y-Coord   

[LABELS]

[BACKDROP]
DIMENSIONS    2900.000    4900.000    5100.000    7100.000
UNITS    METERS
OFFSET    0.00    0.00

[END]
