; Filename: D:/OneDrive/IHE_HI/015. Thesis/Github_repositories\Msc-Thesis/INP_FILES/Twoloops_Base_WNTR.inp
; WNTR: 0.4.2
; Created: 2023-03-07 09:37:41
[TITLE]

[JUNCTIONS]
;ID                      Elevation       Demand Pattern                 
 1                                160             100 16                         ;
 2                                150             100 16                         ;
 3                                150             270 16                         ;
 4                                155             120 16                         ;
 5                                160             200 16                         ;
 6                                165             330 16                         ;

[RESERVOIRS]
;ID                                   Head                  Pattern
 7                                210                            ;

[TANKS]
;ID                              Elevation           Init Level            Min Level            Max Level             Diameter           Min Volume Volume Curve         Overflow            

[PIPES]
;ID                   Node1                Node2                              Length             Diameter            Roughness           Minor Loss               Status
 1                    2                    1                               1000             200             130               0                 Open   ;
 2                    1                    3                               1000             150             130               0                 Open   ;
 3                    2                    4                               1000             450             130               0                 Open   ;
 4                    4                    3                               1000             150             130               0                 Open   ;
 5                    5                    3                               1000             150             130               0                 Open   ;
 6                    4                    6                               1000             400             130               0                 Open   ;
 7                    6                    5                               1000             250             130               0                 Open   ;
 8                    7                    2                               1000             450             130               0                 Open   ;

[PUMPS]
;ID                   Node1                Node2                Properties          

[VALVES]
;ID                   Node1                Node2                            Diameter Type              Setting           Minor Loss

[TAGS]
;type      name       tag       

[DEMANDS]
;ID        Demand     Pattern   

[STATUS]
;ID        Setting   

[PATTERNS]
;ID        Multipliers

16 0.963506 0.875664 0.858918 0.865106 0.820947 0.707476
16 0.737950 0.683613 0.663910 0.658091 0.633662 0.649988
16 0.618265 0.589990 0.585741 0.572584 0.588762 0.542457
16 0.545819 0.513630 0.471392 0.532117 0.530045 0.491160
16 0.545395 0.464935 0.487980 0.476668 0.502144 0.493029
16 0.460633 0.456296 0.425072 0.397246 0.415706 0.413682
16 0.419685 0.406928 0.370294 0.359501 0.337138 0.321077
16 0.307245 0.345200 0.305741 0.300368 0.286277 0.308681
16 0.280633 0.300860 0.298272 0.322167 0.320008 0.321233
16 0.347809 0.365505 0.371105 0.384644 0.378789 0.389721
16 0.389241 0.396245 0.389128 0.373725 0.403474 0.394225
16 0.376199 0.414393 0.399766 0.428105 0.457924 0.471328
16 0.522788 0.512183 0.593993 0.618905 0.668876 0.736142
16 0.806849 0.884285 0.904174 1.050756 1.098877 1.070939
16 1.271436 1.349926 1.366830 1.341923 1.334272 1.492782
16 1.443276 1.571019 1.537722 1.609253 1.591453 1.630963
16 1.600672 1.725885 1.627033 1.650367 1.749962 1.540663
16 1.545013 1.688502 1.545818 1.743091 1.585330 1.558111
16 1.723068 1.688190 1.706103 1.638336 1.520057 1.686921
16 1.542912 1.601345 1.601290 1.523903 1.560604 1.567860
16 1.522586 1.421498 1.490375 1.535201 1.402063 1.417192
16 1.384220 1.494183 1.410344 1.377346 1.295735 1.346895
16 1.264935 1.283260 1.231265 1.279056 1.255877 1.199981
16 1.211801 1.124717 1.090638 1.164104 1.136244 1.142334
16 1.204858 1.127714 1.034850 1.109732 0.995978 1.022031
16 1.029322 1.094194 0.986637 0.977520 1.002125 0.975821
16 1.045065 0.955668 0.952830 0.981814 0.980576 1.079333
16 1.041650 1.008403 0.956484 1.039971 0.965045 0.941351
16 1.047521 1.007667 1.025086 0.993605 1.005915 0.938282
16 0.914250 0.969567 0.903988 0.898961 0.898766 0.907846
16 0.887256 0.844841 0.866354 0.806903 0.905328 0.825396
16 0.842696 0.884237 0.857972 0.941527 0.844312 0.904330
16 0.898586 0.863661 0.931778 0.913656 0.956437 0.966907
16 1.026469 1.004651 0.948606 0.962808 1.024633 1.016752
16 1.025605 0.943785 1.016934 0.996335 1.046805 1.039553
16 1.090264 1.073624 1.101881 1.056225 1.043298 1.074239
16 1.099251 1.124617 1.216448 1.121563 1.088092 1.123560
16 1.126138 1.177905 1.092310 1.175629 1.188899 1.201663
16 1.171329 1.198177 1.150100 1.205248 1.212464 1.269828
16 1.200176 1.306836 1.351756 1.176814 1.311723 1.330502
16 1.266853 1.282656 1.298692 1.291371 1.291276 1.219633
16 1.366820 1.361931 1.261854 1.226527 1.328827 1.270706
16 1.307382 1.283211 1.335994 1.336691 1.263480 1.229971
16 1.220260 1.335144 1.241642 1.277144 1.271938 1.299128
16 1.199313 1.307118 1.320883 1.293863 1.267904 1.282400
16 1.290188 1.121422 1.349456 1.259931 1.196304 1.195853
16 1.223700 1.178263 1.071367 1.241639 1.121258 1.149022
16 1.050183 1.119327 1.039007 1.022507 0.926895 0.979902
16 0.924833 0.906749 0.805793 0.778664 0.834280 0.705039
16 0.707066 0.719054 0.669268 0.662555 0.619966 0.623349
16 0.568643 0.626074 0.572803 0.549669 0.570369 0.536866
16 0.510298 0.503151 0.539575 0.515250 0.509590 0.528009
16 0.477463 0.479225 0.479590 0.482077 0.472338 0.460317
16 0.456667 0.447568 0.428037 0.417399 0.426202 0.396460
16 0.381482 0.383405 0.373749 0.396750 0.341978 0.353257
16 0.339606 0.304985 0.321757 0.291247 0.269323 0.306631
16 0.278929 0.308915 0.300888 0.338317 0.340645 0.331041
16 0.338622 0.341897 0.363593 0.375784 0.382980 0.397938
16 0.409256 0.407650 0.389916 0.378358 0.422498 0.389615
16 0.391941 0.398379 0.384239 0.419049 0.436410 0.480545
16 0.513969 0.538877 0.606374 0.644989 0.692580 0.758442
16 0.810800 0.868368 0.938217 0.968450 1.090885 1.095728
16 1.240398 1.242249 1.307869 1.378350 1.429846 1.342379
16 1.454793 1.550514 1.421432 1.572742 1.427519 1.521261
16 1.602472 1.504070 1.555000 1.528625 1.734664 1.639152
16 1.664670 1.610995 1.598997 1.512774 1.593183 1.557209
16 1.654907 1.666551 1.680640 1.634953 1.536592 1.497232
16 1.607460 1.573656 1.433690 1.555215 1.572817 1.515646
16 1.488897 1.438851 1.387587 1.504523 1.424298 1.412411
16 1.506379 1.429363 1.393782 1.362959 1.418191 1.409144
16 1.348334 1.311476 1.157545 1.251523 1.221176 1.214611
16 1.237904 1.047251 1.133410 1.156348 1.107641 1.050897
16 1.138234 1.098695 1.032346 1.075646 1.085865 1.041476
16 1.065191 1.027220 1.000855 0.964055 1.002629 1.010215
16 1.035033 0.994215 1.016940 0.960757 0.969186 0.997573
16 0.961205 1.037854 1.024417 1.017225 1.018892 1.084462
16 0.981245 0.907430 0.996551 0.979111 0.952449 0.925650
16 0.936950 0.950680 0.915218 1.013668 0.880275 0.878431
16 0.817610 0.903003 0.817524 0.866560 0.873500 0.856874
16 0.942966 0.917494 0.930778 0.855493 0.930550 0.912524
16 0.927771 0.943298 0.879498 0.904354 0.959807 0.836638
16 1.001910 0.974767 0.961064 0.980690 0.941028 0.976914
16 1.044011 1.061439 1.127707 1.023607 1.007944 1.022183
16 1.009128 1.056870 1.084635 1.074832 1.131808 1.081921
16 1.084712 1.082058 1.042770 1.053009 1.077991 1.198637
16 1.188505 1.219207 1.102022 1.080320 1.150308 1.198978
16 1.223937 1.260399 1.233438 1.315214 1.228341 1.203423
16 1.173748 1.222176 1.287860 1.237438 1.338059 1.368609
16 1.176781 1.348415 1.188668 1.327928 1.371494 1.310664
16 1.239714 1.274979 1.290638 1.293456 1.291132 1.294946
16 1.311101 1.236976 1.287448 1.379532 1.281227 1.278902
16 1.358931 1.169906 1.365239 1.270622 1.311562 1.306881
16 1.349008 1.283435 1.258683 1.356236 1.162458 1.278462
16 1.201448 1.222883 1.352227 1.238361 1.237944 1.128277
16 1.165006 1.193068 1.182632 1.175227 1.126627 1.127244
16 1.099687 0.977341 1.028762 1.028858 0.990164 0.921020
16 0.963506

[CURVES]
;ID         X-Value      Y-Value     

[CONTROLS]

[RULES]

[ENERGY]
GLOBAL EFFICIENCY      75.0000
GLOBAL PRICE           0.0000
DEMAND CHARGE          0.0000

[EMITTERS]
;ID        Flow coefficient

[QUALITY]

[SOURCES]
;Node      Type       Quality    Pattern   

[REACTIONS]
;Type           Pipe/Tank               Coefficient

 ORDER BULK 1
 ORDER TANK 1
 ORDER WALL 1
 GLOBAL BULK 0.0000    
 GLOBAL WALL 0.0000    
 LIMITING POTENTIAL 0.0000    
 ROUGHNESS CORRELATION 0.0000    

[MIXING]
;Tank ID             Model Fraction

[TIMES]
DURATION             48:00:00
HYDRAULIC TIMESTEP   00:05:00
QUALITY TIMESTEP     00:05:00
PATTERN TIMESTEP     00:05:00
PATTERN START        00:00:00
REPORT TIMESTEP      00:05:00
REPORT START         00:00:00
START CLOCKTIME      00:00:00 AM
RULE TIMESTEP        00:06:00
STATISTIC            NONE      

[REPORT]
 Status             	No
 Summary            	No
 Page               	0
 Nodes					ALL
 Links					ALL
 Flow					Yes
 Headloss				No
 Velocity 				No
 Demand 				Yes
 Head 					Yes
 Pressure 				Yes
 Quality 				No
 State 					Yes

[OPTIONS]
UNITS                CMH                 
HEADLOSS             H-W                 
SPECIFIC GRAVITY     1
VISCOSITY            1
TRIALS               40
ACCURACY             0.001
CHECKFREQ            2
MAXCHECK             10
UNBALANCED           CONTINUE 10
DEMAND MULTIPLIER    1
DEMAND MODEL         PDA
MINIMUM PRESSURE     0.00
REQUIRED PRESSURE    0.10
PRESSURE EXPONENT    0.5
EMITTER EXPONENT     0.5
QUALITY              NONE                
DIFFUSIVITY          1
TOLERANCE            0.01

[COORDINATES]
;Node      X-Coord    Y-Coord   
1                4000.000000000       7000.000000000
2                5000.000000000       7000.000000000
3                4000.000000000       6000.000000000
4                5000.000000000       6000.000000000
5                4000.000000000       5000.000000000
6                5000.000000000       5000.000000000
7                6000.000000000       7000.000000000

[VERTICES]
;Link      X-Coord    Y-Coord   

[LABELS]

[BACKDROP]
DIMENSIONS    2900.000    4900.000    5100.000    7100.000
UNITS    METERS
OFFSET    0.00    0.00

[END]
