; Filename: D:/OneDrive/IHE_HI/015. Thesis/Github_repositories\Msc-Thesis/INP_FILES/Twoloops_Base_WNTR.inp
; WNTR: 0.4.2
; Created: 2023-03-07 09:39:50
[TITLE]

[JUNCTIONS]
;ID                      Elevation       Demand Pattern                 
 1                                160             100 67                         ;
 2                                150             100 67                         ;
 3                                150             270 67                         ;
 4                                155             120 67                         ;
 5                                160             200 67                         ;
 6                                165             330 67                         ;

[RESERVOIRS]
;ID                                   Head                  Pattern
 7                                210                            ;

[TANKS]
;ID                              Elevation           Init Level            Min Level            Max Level             Diameter           Min Volume Volume Curve         Overflow            

[PIPES]
;ID                   Node1                Node2                              Length             Diameter            Roughness           Minor Loss               Status
 1                    2                    1                               1000             200             130               0                 Open   ;
 2                    1                    3                               1000             150             130               0                 Open   ;
 3                    2                    4                               1000             450             130               0                 Open   ;
 4                    4                    3                               1000             150             130               0                 Open   ;
 5                    5                    3                               1000             150             130               0                 Open   ;
 6                    4                    6                               1000             400             130               0                 Open   ;
 7                    6                    5                               1000             250             130               0                 Open   ;
 8                    7                    2                               1000             450             130               0                 Open   ;

[PUMPS]
;ID                   Node1                Node2                Properties          

[VALVES]
;ID                   Node1                Node2                            Diameter Type              Setting           Minor Loss

[TAGS]
;type      name       tag       

[DEMANDS]
;ID        Demand     Pattern   

[STATUS]
;ID        Setting   

[PATTERNS]
;ID        Multipliers

67 1.058765 0.896357 0.907457 0.971854 0.906543 0.664304
67 0.778477 0.677367 0.659781 0.674042 0.639107 0.703586
67 0.645662 0.594276 0.601069 0.583897 0.638565 0.535724
67 0.555945 0.486378 0.390972 0.552454 0.556618 0.468620
67 0.613488 0.421858 0.489318 0.471274 0.545657 0.534083
67 0.464889 0.466495 0.401596 0.345972 0.406906 0.417538
67 0.449212 0.434938 0.361553 0.352900 0.314999 0.292074
67 0.273486 0.382680 0.296198 0.292332 0.263623 0.322646
67 0.251583 0.296987 0.281651 0.329532 0.309996 0.297350
67 0.347221 0.374740 0.372583 0.391541 0.363997 0.381114
67 0.373102 0.387572 0.369505 0.332145 0.407739 0.384566
67 0.336836 0.425690 0.377184 0.429436 0.477388 0.474957
67 0.556970 0.472264 0.608105 0.592758 0.632667 0.709969
67 0.791576 0.887258 0.837874 1.105574 1.129018 0.965763
67 1.378590 1.492660 1.459149 1.327331 1.244716 1.583404
67 1.407790 1.680877 1.556780 1.700007 1.625003 1.698206
67 1.601680 1.898488 1.639360 1.689543 1.933838 1.408978
67 1.420933 1.783045 1.431654 1.931702 1.545325 1.486081
67 1.907671 1.829769 1.883989 1.724285 1.438708 1.866527
67 1.517833 1.676048 1.688978 1.509641 1.616726 1.651528
67 1.556464 1.323417 1.516730 1.651222 1.341963 1.404392
67 1.347439 1.648553 1.465744 1.410479 1.233976 1.389554
67 1.212337 1.285707 1.183065 1.329600 1.298345 1.184858
67 1.240145 1.047582 0.986863 1.194264 1.147532 1.184781
67 1.362146 1.189293 0.976024 1.180926 0.912972 0.993193
67 1.025095 1.199463 0.941195 0.927392 0.996182 0.935916
67 1.112664 0.890949 0.884074 0.955563 0.950679 1.195336
67 1.098817 1.013682 0.882532 1.090936 0.904717 0.848355
67 1.118803 1.026590 1.079712 1.012368 1.055916 0.900651
67 0.855068 1.008165 0.858965 0.860713 0.873745 0.908797
67 0.868141 0.771088 0.832014 0.688751 0.938462 0.740623
67 0.784276 0.886999 0.818740 1.023627 0.775246 0.918667
67 0.896465 0.800164 0.960433 0.904187 0.999401 1.013158
67 1.149089 1.081127 0.927278 0.948845 1.089389 1.055706
67 1.064013 0.845889 1.015449 0.950873 1.064191 1.033407
67 1.147713 1.093802 1.152283 1.026105 0.981857 1.047369
67 1.098128 1.149819 1.367681 1.118715 1.023201 1.099908
67 1.094222 1.211290 0.984696 1.180080 1.199993 1.218249
67 1.128322 1.180909 1.045896 1.168855 1.172096 1.301008
67 1.112882 1.366234 1.466130 1.017460 1.344709 1.383115
67 1.217133 1.251589 1.288282 1.268019 1.267035 1.088173
67 1.457158 1.446501 1.198202 1.111886 1.369523 1.225772
67 1.318454 1.258307 1.389936 1.390905 1.206829 1.121901
67 1.096530 1.382876 1.148652 1.237504 1.225318 1.295022
67 1.048284 1.321812 1.361551 1.300703 1.243956 1.289865
67 1.320593 0.911597 1.496330 1.288968 1.148220 1.167356
67 1.259249 1.170017 0.929290 1.383709 1.113788 1.216596
67 1.005335 1.216535 1.056656 1.058972 0.866228 1.047820
67 0.962084 0.974070 0.774643 0.755750 0.939876 0.658213
67 0.701267 0.765970 0.673177 0.685201 0.604866 0.636987
67 0.521608 0.684487 0.568723 0.526610 0.592582 0.521747
67 0.467143 0.460180 0.561429 0.510285 0.505480 0.560741
67 0.443659 0.457583 0.468342 0.484795 0.471140 0.452301
67 0.454974 0.444674 0.409008 0.396354 0.433145 0.374484
67 0.353706 0.376130 0.370191 0.446023 0.327099 0.372523
67 0.354389 0.282142 0.336238 0.269531 0.221238 0.317522
67 0.247323 0.317125 0.288192 0.369908 0.361589 0.321869
67 0.324251 0.315720 0.353801 0.369391 0.374476 0.401656
67 0.423141 0.416084 0.371476 0.343726 0.455299 0.373040
67 0.376191 0.385656 0.338366 0.406797 0.423605 0.497998
67 0.534923 0.538999 0.639059 0.657969 0.691928 0.765718
67 0.801454 0.847465 0.922983 0.899807 1.109037 1.027736
67 1.300996 1.223469 1.311745 1.418400 1.483652 1.207397
67 1.436582 1.629613 1.266053 1.608730 1.215169 1.423951
67 1.606181 1.343950 1.459279 1.385187 1.895592 1.655198
67 1.720073 1.589277 1.564602 1.355910 1.564956 1.483826
67 1.737268 1.775673 1.820333 1.715828 1.480044 1.392303
67 1.679203 1.606824 1.269977 1.587921 1.647257 1.520992
67 1.472242 1.366798 1.259759 1.574526 1.397551 1.392440
67 1.652836 1.486503 1.424340 1.374510 1.540116 1.545176
67 1.420836 1.356247 0.998766 1.260768 1.211593 1.221432
67 1.305401 0.853916 1.093792 1.174875 1.076025 0.956188
67 1.195586 1.116747 0.969764 1.095711 1.137690 1.041807
67 1.114768 1.032029 0.976740 0.893729 0.997442 1.021901
67 1.087583 0.987317 1.044348 0.902920 0.922205 0.990937
67 0.897703 1.087309 1.052366 1.034071 1.039333 1.206130
67 0.953114 0.775997 1.008374 0.976133 0.922249 0.869072
67 0.911819 0.960949 0.887040 1.147481 0.827518 0.835259
67 0.694024 0.916493 0.709939 0.837893 0.858891 0.819319
67 1.034950 0.970141 1.000755 0.808541 0.990841 0.939153
67 0.969427 0.999258 0.829734 0.880933 1.007825 0.687487
67 1.087690 1.006417 0.958424 0.993552 0.880378 0.956111
67 1.110028 1.140025 1.292380 1.019053 0.967039 0.989982
67 0.944871 1.051917 1.109167 1.072620 1.203131 1.066573
67 1.061780 1.043422 0.933485 0.947329 0.997948 1.287602
67 1.250139 1.314545 1.008977 0.941808 1.103516 1.211538
67 1.259843 1.336462 1.254240 1.443772 1.211788 1.134994
67 1.046812 1.154584 1.306390 1.169022 1.410548 1.478383
67 0.991954 1.415986 1.013222 1.359412 1.467581 1.315751
67 1.139392 1.229120 1.270162 1.279209 1.275285 1.286370
67 1.327752 1.142721 1.268570 1.498006 1.251196 1.244229
67 1.443209 0.969779 1.457644 1.221198 1.324379 1.314405
67 1.422521 1.262606 1.206050 1.456635 0.980340 1.280021
67 1.098742 1.165248 1.503257 1.235041 1.252321 0.998417
67 1.112515 1.207028 1.207453 1.217679 1.127210 1.162152
67 1.129094 0.861571 1.031043 1.074849 1.024401 0.900616
67 0.827494 0.765485 0.815726 0.883900 0.614788 0.687672
67 0.629900 0.741764 0.629708 0.616986 0.616364 0.641615
67 0.576457 0.408283 0.606792 0.589850 0.543363 0.487654
67 0.558032 0.551966 0.500329 0.507321 0.464676 0.497147
67 0.422479 0.514254 0.441090 0.491699 0.406615 0.438184
67 0.452737 0.374849 0.445797 0.415071 0.348120 0.357533
67 0.424205 0.423026 0.371160 0.378630 0.359774 0.351634
67 0.372156 0.271957 0.333217 0.294046 0.294621 0.290322
67 0.288746 0.266234 0.315024 0.370269 0.324849 0.337109
67 0.324270 0.355127 0.387374 0.365975 0.371013 0.411407
67 0.363280 0.412178 0.435204 0.456040 0.397010 0.455459
67 0.444071 0.366329 0.364298 0.414188 0.490730 0.465520
67 0.469967 0.622430 0.601357 0.488668 0.714995 0.792781
67 0.835464 0.921981 0.941993 0.880498 1.038792 1.033157
67 1.088071 1.096284 1.364347 1.364883 1.331503 1.339359
67 1.463498 1.659421 1.219371 1.607119 1.483460 1.287213
67 1.288688 1.463784 1.654349 1.688093 1.474570 1.794071
67 1.859358 1.689855 1.526005 1.799208 1.733770 1.745449
67 1.494966 1.142031 1.923555 1.326351 1.568659 1.940291
67 1.611189 1.698823 1.311038 1.260821 1.442049 1.677013
67 1.448063 1.368732 1.501962 1.615584 1.233750 1.253136
67 1.297638 1.543564 1.405661 1.644219 1.462101 1.313829
67 1.464460 1.308734 1.174338 1.330041 1.142086 1.174923
67 1.351297 1.164229 1.066672 1.090878 1.244050 1.052481
67 1.057444 1.031209 1.093822 1.021319 0.882912 0.948877
67 0.935862 1.151332 1.099575 1.070308 0.955244 0.920648
67 0.949248 0.893751 1.248055 0.774936 1.056937 0.873286
67 0.993068 0.905601 0.887341 0.891291 1.181687 0.990006
67 0.923430 1.050356 0.989693 1.051740 0.795158 0.992617
67 1.027397 0.787007 0.975865 1.081264 0.914087 0.981730
67 0.960351 0.830758 0.892784 0.746887 0.843378 0.905342
67 0.945395 0.884567 0.947782 0.788989 0.881302 0.896497
67 1.066463 0.886589 0.867131 0.921933 0.842519 0.954115
67 0.910235 0.782834 0.957183 0.941247 0.821246 0.984132
67 1.148936 1.061650 1.080214 0.888919 1.084582 1.059143
67 1.107619 1.104977 0.923018 1.071850 1.002086 1.086683
67 1.001286 1.253213 1.019797 1.022469 1.139791 1.016610
67 1.098689 1.059733 1.328321 1.264809 1.174712 1.144027
67 1.312910 1.258707 1.280311 1.226289 1.030142 1.234994
67 1.191365 1.348982 1.404568 1.198631 1.350142 1.520297
67 1.213197 1.522584 1.194315 1.309939 1.305979 1.308776
67 1.197145 1.228369 1.217198 1.345556 1.344657 1.590183
67 1.478229 1.233543 1.342268 1.430229 1.305230 1.292950
67 1.309466 1.416358 1.193045 1.261118 1.364317 1.342412
67 1.331146 1.249346 1.419595 1.564423 1.336048 1.252746
67 1.365891 1.193305 1.157713 1.244644 0.911099 1.074663
67 1.158245 1.023552 1.045670 1.096835 0.941201 1.059143
67 1.022269 1.057200 1.145804 1.015416 0.969377 0.943918
67 0.920465 0.774239 0.817072 0.818453 0.659173 0.799991
67 0.787810 0.644352 0.650573 0.590598 0.674095 0.549070
67 0.586651 0.536702 0.578456 0.463661 0.629253 0.494187
67 0.542297 0.520496 0.484994 0.472523 0.560305 0.479580
67 0.513559 0.454087 0.455565 0.502944 0.517157 0.457497
67 0.392700 0.539305 0.402973 0.364920 0.530946 0.394500
67 0.341531 0.361720 0.389945 0.370826 0.321925 0.402461
67 0.312552 0.282278 0.342088 0.346358 0.276742 0.257418
67 0.330913 0.241318 0.271407 0.347950 0.324874 0.328257
67 0.360487 0.353858 0.322054 0.428542 0.440146 0.403579
67 0.401805 0.496087 0.391092 0.391025 0.415233 0.459615
67 0.466541 0.396341 0.427611 0.368343 0.431066 0.429507
67 0.449658 0.629398 0.538269 0.602507 0.718369 0.851394
67 0.856340 1.125762 0.941292 1.040451 1.108515 1.304804
67 1.260869 1.240186 1.181610 1.384691 1.589320 1.373586
67 1.544526 1.534649 1.656706 1.424114 1.937296 1.383242
67 1.541512 1.761926 1.666850 1.759061 1.546643 1.616272
67 1.629725 1.880552 1.733909 1.746200 1.505943 1.761747
67 1.636093 1.815206 1.907246 1.532536 1.510326 1.431772
67 1.537238 1.492270 1.598298 1.511243 1.468111 1.673056
67 1.359318 1.551284 1.413018 1.563456 1.641901 1.382512
67 1.470871 1.416145 1.263617 1.387890 1.375560 1.372891
67 1.274208 1.293700 1.118409 1.200762 1.295813 1.318058
67 1.142527 1.188457 1.186272 1.167047 1.189757 0.911496
67 1.094574 1.112635 0.966625 1.240091 1.068300 1.204046
67 0.950546 0.931106 1.039737 0.841234 1.027715 1.012170
67 1.101567 1.068835 0.956976 0.889640 1.171825 0.922628
67 0.898617 0.895868 1.118162 0.953793 0.929497 1.017164
67 0.979306 0.927578 1.063214 1.085615 1.068412 1.037252
67 0.992103 0.776220 1.089912 0.952377 0.971120 1.008362
67 1.029002 0.931415 0.927978 0.832599 0.886162 0.806581
67 0.818170 0.803547 0.870332 0.979827 1.172686 0.911728
67 0.778643 1.020598 0.885223 0.859195 0.947264 0.819941
67 0.965739 0.945239 0.972296 1.009194 0.988086 0.992402
67 1.028431 1.050964 0.912928 0.879833 1.028832 0.894123
67 1.061173 1.159695 1.133137 0.963491 0.990984 1.128008
67 1.055857 1.072736 1.182219 1.012544 1.085959 1.048171
67 1.027725 1.056600 1.242913 1.178738 1.077629 1.163090
67 1.003343 1.120982 1.481725 1.218414 1.330057 1.240862
67 1.302185 1.351288 1.134613 1.279080 1.493364 1.192375
67 1.226363 1.263264 1.340756 1.375542 1.473143 1.372571
67 1.298487 1.469942 1.396125 1.108074 1.630553 1.530870
67 1.278132 1.348934 1.472205 1.278153 1.396284 1.445836
67 1.170541 1.224820 1.423754 1.363642 1.423391 1.284607
67 1.262429 1.038034 1.145505 1.295371 1.389732 1.345277
67 1.253632 1.227027 1.278721 1.250276 1.400888 1.232641
67 1.022250 1.033120 1.343185 1.012603 1.212338 1.074345
67 1.061747 1.040377 1.152707 0.978948 0.964117 0.791551
67 0.918602 0.907637 0.846325 0.904925 0.768098 0.758270
67 0.828129 0.581170 0.636274 0.739795 0.689011 0.655926
67 0.649959 0.606335 0.669426 0.586388 0.568886 0.555640
67 0.549465 0.470268 0.565466 0.511796 0.605673 0.502358
67 0.521046 0.505827 0.456619 0.527913 0.563271 0.464972
67 0.444039 0.433539 0.357322 0.423757 0.432154 0.454473
67 0.438402 0.372084 0.365709 0.404800 0.345793 0.323051
67 0.375669 0.353438 0.312691 0.287572 0.240746 0.317024
67 0.273109 0.243885 0.358379 0.337814 0.289473 0.296211
67 0.378529 0.327798 0.418094 0.403474 0.409505 0.411463
67 0.407658 0.437426 0.383947 0.404896 0.430756 0.423221
67 0.354350 0.386502 0.425308 0.409786 0.523910 0.450474
67 0.491889 0.580252 0.603907 0.627091 0.640589 0.776313
67 0.901929 0.924574 0.874573 1.190357 0.922729 0.960463
67 1.315267 1.283108 1.233559 1.203162 1.717490 1.449140
67 1.545298 1.545393 1.591327 1.632397 1.684010 1.526619
67 1.553337 1.330370 1.492498 1.668286 1.797443 1.726005
67 1.572278 1.420147 1.171459 1.803626 1.517017 1.534102
67 1.621052 1.369785 1.531983 1.900955 1.653853 1.623485
67 1.312821 1.899648 1.323319 1.828182 1.201027 1.724585
67 1.742708 1.364306 1.535043 1.537669 1.324769 1.219121
67 1.223109 1.466539 1.361721 1.278780 1.466155 1.385442
67 1.201790 1.127679 1.329507 1.178411 1.239743 1.400805
67 1.252828 1.074726 1.178456 1.035015 1.310276 1.051474
67 1.122800 1.120100 1.091172 0.854218 0.899251 0.994154
67 1.065109 1.009906 0.919596 0.874622 0.965687 0.955463
67 1.051284 0.966221 1.058858 0.939890 0.974898 0.967124
67 0.925026 1.067701 0.923954 0.953517 0.997914 0.873177
67 0.967507 0.924274 0.950294 0.975218 0.894784 0.942168
67 1.078513 0.941399 1.040972 0.956491 0.986317 0.836952
67 0.909442 0.905982 0.834770 0.812796 0.751613 1.013857
67 0.795912 1.001186 0.842794 0.810308 0.945783 0.838295
67 0.951161 0.875839 0.956522 0.830898 1.004927 0.981750
67 0.857841 1.205715 1.014829 1.194776 1.138522 0.972074
67 0.958773 0.968337 0.831642 0.955205 1.060759 1.202907
67 0.970672 1.153685 0.934469 1.013200 1.034639 1.132760
67 1.150304 1.214425 1.201623 1.150781 1.175516 1.320313
67 1.088791 1.245179 0.953575 1.220897 1.124406 1.190911
67 1.324810 1.229606 1.327525 1.410710 1.287600 1.395309
67 1.217279 1.266198 1.208847 1.416868 1.343139 1.229718
67 1.320107 1.439123 1.300505 1.182919 1.324683 1.048359
67 1.407042 1.250545 1.243077 1.417053 1.123994 1.553914
67 1.237569 1.231800 1.432796 1.392718 1.620213 1.274518
67 1.287061 1.110521 1.260341 1.209527 1.244543 1.074796
67 1.515879 1.113542 0.931230 1.136079 1.206344 1.130577
67 1.409393 1.243920 1.254717 1.316297 1.263492 1.333732
67 1.066863 1.118947 1.243742 0.856232 0.971359 1.159280
67 1.028211 1.153236 1.110364 0.878604 1.006677 1.046937
67 0.913269 0.777624 0.899245 0.844389 0.805332 0.788969
67 0.498035 0.748366 0.787203 0.675728 0.642175 0.657036
67 0.620294 0.625401 0.575608 0.521721 0.499764 0.492350
67 0.465052 0.475016 0.617473 0.557664 0.480308 0.486426
67 0.505628 0.461292 0.490378 0.517610 0.471445 0.481307
67 0.498378 0.437265 0.453274 0.418081 0.420370 0.397761
67 0.378845 0.395000 0.397430 0.369225 0.369447 0.315293
67 0.290057 0.333568 0.333573 0.307249 0.342007 0.326544
67 0.380417 0.297349 0.278453 0.293776 0.308209 0.353205
67 0.273058 0.406730 0.361264 0.370666 0.346701 0.390942
67 0.400530 0.397125 0.415847 0.377775 0.364742 0.422634
67 0.406413 0.414884 0.458752 0.383531 0.406894 0.527861
67 0.425856 0.468245 0.632396 0.651493 0.700308 0.746684
67 0.819586 0.874176 1.076920 0.973831 1.061375 1.345814
67 1.203301 1.534837 1.291582 1.536477 1.163225 1.454375
67 1.234502 1.624262 1.340053 1.592699 1.524808 1.402427
67 1.340902 1.528497 1.900591 1.576581 1.776645 1.619165
67 1.770441 1.328513 1.556532 1.770903 1.585684 1.592246
67 1.531126 1.776992 1.634742 1.587997 1.675525 1.659370
67 1.592787 1.791572 1.533531 1.576052 1.425256 1.534781
67 1.738164 1.391241 1.305849 1.603167 1.420675 1.439413
67 1.402386 1.402278 1.490223 1.241534 1.201642 1.329659
67 1.091163 1.105654 1.499234 1.339692 1.226330 1.359870
67 1.068771 1.139022 1.232131 1.245890 1.186613 0.830933
67 0.993511 1.138502 1.035835 1.332110 1.148726 1.099366
67 0.916854 1.020400 1.041460 1.124952 1.094737 1.105974
67 0.907609 1.139861 0.860809 0.945760 1.043606 0.986979
67 0.902579 0.922328 0.850064 1.059510 1.131985 0.993276
67 0.959965 0.848548 1.078955 1.198048 0.797765 0.860921
67 0.888891 0.890572 0.955238 1.073690 1.007778 0.955076
67 0.834846 0.793914 0.818394 1.022779 0.877786 0.842504
67 0.865442 0.955160 0.768054 1.012264 0.904288 0.875414
67 0.939856 0.925778 0.881261 0.896720 0.847182 0.997515
67 0.894464 0.862472 0.978794 1.101324 0.976717 0.930534
67 1.040390 1.204472 0.870132 1.065881 1.056444 1.164874
67 1.156206 1.040377 0.888327 1.163117 0.993702 0.988754
67 1.226319 1.006910 1.272131 1.161193 1.167456 1.174335
67 0.959420 0.950360 1.189145 1.239269 1.191263 1.092793
67 1.202271 1.199766 1.102838 1.354178 1.024930 1.322578
67 1.306734 1.395192 1.147279 1.296060 1.569755 1.381194
67 1.313076 1.373640 1.316883 1.593275 1.436041 1.296081
67 1.339565 1.254531 1.462088 1.119745 1.092808 1.490392
67 1.579906 1.360684 1.314690 1.386030 1.217050 1.324314
67 1.307816 1.384985 1.100529 1.237476 1.413123 1.213912
67 1.170863 1.562244 1.298703 1.214663 1.066591 1.370592
67 1.358702 1.223623 1.113591 1.237528 1.125686 1.100400
67 1.187614 1.059301 1.194846 1.216659 1.031675 0.952922
67 1.248713 0.955368 0.959450 1.019460 1.025319 0.910667
67 0.941471 0.827309 0.746286 0.907181 0.953971 0.861124
67 0.721013 0.813876 0.690376 0.616555 0.659416 0.608458
67 0.541013 0.534389 0.621683 0.460706 0.589124 0.457816
67 0.424722 0.434009 0.628262 0.508384 0.516766 0.578028
67 0.546709 0.424961 0.529417 0.489110 0.456970 0.466792
67 0.516384 0.409673 0.458391 0.431012 0.345809 0.378129
67 0.407729 0.438625 0.413783 0.385634 0.323208 0.401729
67 0.336848 0.287988 0.306395 0.333126 0.301609 0.325920
67 0.333111 0.315596 0.282819 0.321554 0.328158 0.399844
67 0.291573 0.354503 0.348502 0.392781 0.293914 0.439550
67 0.400550 0.327865 0.387686 0.425892 0.336873 0.400793
67 0.359885 0.384241 0.415930 0.435054 0.424002 0.481701
67 0.540899 0.523768 0.668272 0.729381 0.663305 0.705524
67 0.681063 0.871136 0.913906 1.093224 0.915923 1.109405
67 1.316249 1.163127 1.205775 1.156075 1.759278 1.325302
67 1.276182 1.377382 1.406936 1.507028 1.698595 1.538816
67 1.452348 1.377033 1.622353 1.631160 1.876519 1.643509
67 1.611618 1.454692 1.572303 1.546434 1.552330 1.452063
67 1.686133 1.571101 1.555705 1.310040 1.652004 1.643508
67 1.428758 1.705165 1.332273 1.530057 1.481880 1.312915
67 1.528455 1.740038 1.482766 1.390352 1.506596 1.440799
67 1.412652 1.332066 1.568706 1.417106 1.266229 1.304216
67 1.203687 1.203668 1.182449 1.104097 1.322981 1.174845
67 1.259007 1.097325 1.152821 1.062655 1.209949 1.086361
67 1.019604 0.908263 1.103675 0.987019 1.049656 0.990054
67 1.130625 1.079736 1.062410 0.948653 1.053000 1.174323
67 0.916781 1.016027 0.833966 1.139075 0.960696 1.080412
67 0.830606 1.185516 0.969891 1.060887 1.020426 0.977716
67 1.168579 0.831063 1.018202 1.070441 0.969678 0.951985
67 0.940096 0.827966 0.937565 0.971858 0.921727 0.882510
67 0.855925 0.869040 1.001092 0.700864 0.886779 0.853005
67 1.009993 0.887292 1.015413 0.698448 0.931276 0.919831
67 1.025148 0.757287 0.898525 0.926046 0.881795 1.049953
67 0.912727 1.147715 1.064323 1.064548 1.036355 0.885394
67 0.956890 1.066842 1.086895 1.160843 0.986823 0.953880
67 1.142340 0.974337 1.161575 1.205434 1.133718 1.053100
67 1.104519 1.173561 1.116763 1.370432 1.019273 1.025090
67 1.035325 1.087513 0.910414 1.098825 1.104316 1.199953
67 1.250136 1.059662 1.329338 1.451097 1.213562 1.445687
67 1.283413 1.519258 1.418018 1.082393 1.292135 1.432007
67 1.303971 1.298561 1.471416 1.214165 1.309727 1.349580
67 1.262982 1.302923 1.405374 1.359351 1.196426 1.157053
67 1.197417 1.299976 1.279241 1.192349 1.223413 1.104106
67 1.357183 1.298108 1.139405 1.307302 1.477965 1.205536
67 1.470968 1.255358 1.319366 1.301906 1.463807 1.297662
67 1.124906 1.095952 1.059689 1.028191 1.234027 1.098422
67 1.190303 1.100440 1.076205 1.091777 1.205478 1.206547
67 1.120172 0.950142 1.093358 1.066962 0.993908 0.878207
67 0.963797 0.898310 0.568932 0.845106 0.617696 0.785112
67 0.699978 0.769871 0.660118 0.590053 0.620748 0.679356
67 0.601575 0.580419 0.618317 0.576929 0.555231 0.621661
67 0.622900 0.564415 0.509993 0.596183 0.572945 0.542577
67 0.439196 0.500597 0.450865 0.472627 0.484494 0.470324
67 0.436042 0.506716 0.365970 0.462931 0.343266 0.426840
67 0.364524 0.422356 0.379373 0.372915 0.316064 0.318130
67 0.336584 0.338900 0.403522 0.312538 0.330795 0.252760
67 0.260103 0.292655 0.272310 0.364414 0.313282 0.383757
67 0.399972 0.360885 0.388693 0.377914 0.409576 0.414573
67 0.395054 0.422329 0.471539 0.430069 0.413684 0.405663
67 0.361688 0.365065 0.428234 0.368714 0.410850 0.529000
67 0.595711 0.449034 0.679676 0.622881 0.691975 0.745044
67 0.905315 0.740457 0.991635 0.918382 1.140359 1.317099
67 1.199950 1.301718 1.358743 1.243573 1.604695 1.676797
67 1.569881 1.508758 1.454578 1.451722 1.837532 1.810479
67 1.589814 1.356319 1.160365 1.448275 1.606121 1.856550
67 1.521661 1.707529 1.833293 1.638139 1.589038 1.395927
67 1.407604 1.660122 1.555617 1.600409 1.566847 1.671268
67 1.437249 1.499477 1.835382 1.410771 1.480301 1.422962
67 1.566717 1.638904 1.399428 1.394960 1.401896 1.501266
67 1.304579 1.338964 1.047611 1.167995 1.321874 1.436835
67 1.338360 1.140807 1.086490 1.267114 1.024673 1.339047
67 1.200527 0.987098 1.047788 1.061137 1.041447 0.948052
67 1.003787 1.012289 0.997670 1.182088 1.062336 0.937832
67 0.997601 0.933947 0.986423 1.099448 1.031468 1.231539
67 1.037593 0.907563 1.079534 1.107234 1.109979 0.892355
67 0.988723 1.118618 0.836337 0.955753 0.861820 0.909780
67 0.898754 1.119490 0.965481 0.896394 0.871861 0.977017
67 0.952642 1.070692 0.980705 0.792095 0.857867 1.004290
67 0.844103 1.049082 0.791582 0.936386 0.807173 0.836969
67 0.978499 0.871183 0.956046 0.928765 0.957477 0.815300
67 0.880058 0.944429 0.835182 1.069877 0.855683 0.907990
67 0.849631 0.749267 1.135836 0.952252 0.937501 0.971095
67 1.141986 0.911664 1.087100 0.983134 0.973445 1.102831
67 1.155925 1.005689 0.986146 0.950475 1.203907 1.029326
67 0.896596 1.264012 0.962801 1.211032 1.152105 1.172130
67 1.080363 1.197897 0.969915 1.241618 1.365463 1.295858
67 0.957655 1.090631 1.196667 1.289379 1.226159 1.187437
67 1.333283 1.414764 1.245878 1.376575 0.957104 1.173979
67 1.258236 1.239690 1.349083 1.439430 1.373680 1.225931
67 1.107631 1.378266 1.064537 1.388042 1.277166 1.147726
67 1.337343 1.299439 1.295276 1.289595 1.355838 1.422380
67 1.367443 1.435237 1.297881 1.514549 1.377435 1.231084
67 1.157794 1.324020 1.124737 1.163805 1.314565 1.199770
67 1.151394 1.256957 1.260636 1.215038 1.181983 1.318677
67 1.241091 1.157312 1.453446 1.169157 1.253729 1.042041
67 0.932873 0.971029 0.999711 0.948626 1.096614 0.923404
67 0.941532 0.857862 0.790723 0.796957 0.894817 0.679716
67 0.765460 0.617210 0.636021 0.647689 0.650595 0.705359
67 0.596995 0.537601 0.612935 0.544466 0.568820 0.540589
67 0.434303 0.558830 0.555633 0.566610 0.604573 0.445693
67 0.525825 0.513858 0.466676 0.499336 0.496776 0.408911
67 0.469067 0.408234 0.411994 0.354861 0.401617 0.402742
67 0.421994 0.388290 0.318112 0.395275 0.347724 0.357038
67 0.361603 0.365767 0.373315 0.303517 0.310756 0.267087
67 0.331848 0.267488 0.253506 0.343602 0.309640 0.363373
67 0.362411 0.300774 0.269460 0.338370 0.389291 0.347143
67 0.373890 0.343374 0.409043 0.405092 0.381345 0.456639
67 0.462716 0.429860 0.340163 0.380023 0.463062 0.439436
67 0.475645 0.587231 0.614450 0.719960 0.663270 0.857227
67 0.771757 1.014603 0.958411 0.926937 0.902810 1.106657
67 1.169252 1.362387 1.290849 1.293201 1.544112 1.400164
67 1.382403 1.583845 1.450318 1.650782 1.475425 1.550770
67 1.624348 1.550552 1.616637 1.756703 1.694198 1.706778
67 1.524303 1.764098 1.730524 1.779800 1.494910 1.578433
67 1.701365 1.496770 1.551614 1.885513 1.881554 1.761506
67 1.706016 1.393402 1.621912 1.478343 1.361949 1.435116
67 1.517350 1.405500 1.391683 1.573322 1.462911 1.459011
67 1.424501 1.297262 1.185175 1.397347 1.269121 1.053343
67 1.248966 1.141646 1.351665 1.310321 1.288562 1.129589
67 1.280172 1.213736 1.112286 1.092136 1.229481 1.061275
67 1.133402 1.199016 1.279143 1.239017 1.146020 0.884452
67 0.961020 0.967890 1.185046 0.940243 1.044939 1.012536
67 0.906487 1.036951 1.038444 0.873823 1.122857 0.792930
67 0.944254 1.102556 0.885769 1.041231 0.874946 0.994016
67 0.768623 0.911212 0.836125 0.941680 0.932197 0.898470
67 1.029802 0.860127 0.993256 1.075079 0.928177 0.829403
67 0.787560 0.830554 0.951908 0.899451 0.965981 0.949847
67 0.894058 0.924176 1.048154 1.012333 0.863401 0.983326
67 0.952727 1.008948 0.973971 0.830348 0.777521 0.989674
67 1.124468 0.879694 0.944714 0.871429 1.097061 0.762391
67 0.773634 1.046889 1.009543 0.977402 1.004044 1.099693
67 1.008435 0.943879 0.969212 1.171918 1.027363 0.940859
67 1.111240 1.163760 1.263889 1.147943 1.056716 1.193332
67 1.230853 1.151152 1.158861 1.203166 1.173248 1.220384
67 1.077370 1.070522 1.117600 1.308470 1.271452 1.378972
67 1.234880 1.122311 1.421496 1.280641 1.455264 1.372886
67 1.584520 1.274723 1.423233 1.423434 1.234857 1.284725
67 1.115605 1.103348 1.320797 1.406279 1.384748 1.344888
67 1.412192 1.223164 1.264603 1.396467 1.357607 1.274651
67 1.474813 1.134934 1.236019 1.266628 1.409414 1.302176
67 1.136006 1.364004 1.434475 1.384622 1.363361 1.037994
67 1.155640 1.322111 1.244670 1.305401 1.072807 1.207380
67 1.033226 0.952492 1.200575 1.243565 1.153900 1.100329
67 0.911372 1.160617 1.022717 1.193800 1.058494 0.747219
67 0.967954 0.741505 0.763782 0.774032 0.756698 0.765528
67 0.638214 0.608635 0.706702 0.646599 0.641018 0.479508
67 0.589372 0.534835 0.522539 0.617136 0.494689 0.487170
67 0.521225 0.555745 0.478594 0.582557 0.586610 0.461569
67 0.487746 0.455214 0.404996 0.494817 0.507845 0.559345
67 0.416712 0.509560 0.499883 0.439965 0.446958 0.447012
67 0.478964 0.406806 0.373859 0.332381 0.362641 0.375277
67 0.337817 0.295239 0.314884 0.301777 0.309358 0.249620
67 0.316524 0.321510 0.323114 0.317138 0.267686 0.336504
67 0.385136 0.328440 0.296494 0.321497 0.400854 0.410205
67 0.435452 0.399806 0.341865 0.368587 0.433436 0.406293
67 0.428594 0.424551 0.406319 0.419783 0.527579 0.488354
67 0.493571 0.563333 0.597615 0.499055 0.738067 0.890815
67 0.753280 1.010593 0.924013 1.043976 1.194252 1.058901
67 1.349099 1.102414 1.191052 1.271427 1.486258 1.383542
67 1.243964 1.465349 1.405422 1.662009 1.515230 1.597360
67 1.535124 1.680716 1.589095 1.677071 1.205336 1.644291
67 1.695108 1.593080 1.730497 1.736809 1.822240 1.622966
67 1.293792 1.229540 1.333218 1.575043 1.549526 1.610476
67 1.462116 1.437274 1.628467 1.633991 1.484097 1.506264
67 1.560647 1.561876 1.304319 1.352951 1.264668 1.353455
67 1.523178 1.467272 1.222597 1.424683 1.348383 1.253334
67 1.117160 1.259222 1.349302 0.975976 1.178938 1.482846
67 1.273144 1.206701 1.074322 1.066397 1.119318 1.292601
67 1.151215 0.991886 1.200462 1.031187 1.229760 0.982258
67 0.928588 1.041897 1.116828 1.115819 1.022104 0.903375
67 0.949466 0.797225 0.907477 0.981481 1.039427 0.967985
67 0.997821 0.965072 1.081322 0.915544 1.089460 1.200094
67 1.047279 0.942604 0.935650 1.099794 0.863012 0.871482
67 0.842650 0.823164 0.836417 0.997483 1.016355 0.843972
67 0.918660 0.961879 0.898190 0.801095 0.753368 0.971021
67 0.925389 0.933306 0.786196 0.907631 0.946360 0.922871
67 0.832948 0.997702 0.773251 1.005410 1.028094 1.083254
67 0.912367 0.858354 1.039261 0.904144 0.985780 0.959330
67 0.909793 1.041439 0.876228 1.087441 0.935115 0.862918
67 1.046694 1.105932 1.129914 1.164386 0.829063 0.982376
67 1.111732 1.276093 1.203063 1.337070 1.071963 1.170592
67 1.021203 1.108919 1.078461 1.098316 1.135016 1.190929
67 1.202666 1.275431 1.236642 1.187208 1.174610 1.210680
67 1.201867 1.329456 1.385906 1.446515 1.186850 1.356230
67 1.118692 1.352006 1.446989 1.287388 1.447677 1.158431
67 1.190485 1.287821 1.437614 1.248565 1.242658 1.171685
67 1.326375 1.461860 1.391124 1.391152 1.274315 1.228674