; Filename: D:/OneDrive/IHE_HI/015. Thesis/Github_repositories\Msc-Thesis/INP_FILES/Twoloops_Base_WNTR.inp
; WNTR: 0.3.1
; Created: 2023-03-01 15:17:09
[TITLE]

[JUNCTIONS]
;ID                      Elevation       Demand Pattern                 
 1                                160             100 19                         ;
 2                                150             100 19                         ;
 3                                150             270 19                         ;
 4                                155             120 19                         ;
 5                                160             200 19                         ;
 6                                165             330 19                         ;

[RESERVOIRS]
;ID                                   Head                  Pattern
 7                                210                            ;

[TANKS]
;ID                              Elevation           Init Level            Min Level            Max Level             Diameter           Min Volume Volume Curve         Overflow            

[PIPES]
;ID                   Node1                Node2                              Length             Diameter            Roughness           Minor Loss               Status
 1                    2                    1                               1000             200             130               0                 Open   ;
 2                    1                    3                               1000             150             130               0                 Open   ;
 3                    2                    4                               1000             450             130               0                 Open   ;
 4                    4                    3                               1000             150             130               0                 Open   ;
 5                    5                    3                               1000             150             130               0                 Open   ;
 6                    4                    6                               1000             400             130               0                 Open   ;
 7                    6                    5                               1000             250             130               0                 Open   ;
 8                    7                    2                               1000             450             130               0                 Open   ;

[PUMPS]
;ID                   Node1                Node2                Properties          

[VALVES]
;ID                   Node1                Node2                            Diameter Type              Setting           Minor Loss

[TAGS]
;type      name       tag       

[DEMANDS]
;ID        Demand     Pattern   

[STATUS]
;ID        Setting   
[PATTERNS]
;ID        Multipliers

19 0.931753 0.604802 0.509787 0.417927 0.311205 0.392182
19 0.509501 1.196367 1.596697 1.613139 1.504321 1.337811
19 1.116743 1.002434 1.008877 0.906006 0.926893 0.995897
19 1.106887 1.179502 1.233622 1.316994 1.322475 1.182188
19 0.940856 0.582548 0.500458 0.398503 0.309197 0.411755
19 0.501549 1.209076 1.571591 1.536615 1.489563 1.304065
19 1.127066 1.024048 0.992253 0.894559 0.881126 0.971600
19 1.062462 1.246819 1.286749 1.288610 1.267427 1.218660
19 0.870950 0.597447 0.491045 0.403095 0.296935 0.390555
19 0.499718 1.210280 1.602129 1.609679 1.480970 1.290569
19 1.085206 0.992809 0.983737 0.868927 0.903194 0.991964
19 1.064136 1.211107 1.276410 1.301351 1.318956 1.203096
19 0.920509 0.585182 0.504023 0.394522 0.294775 0.395369
19 0.496884 1.201348 1.562715 1.628826 1.513970 1.260058
19 1.132742 1.037918 1.023576 0.896761 0.880726 1.021089
19 1.091130 1.229339 1.305415 1.325393 1.309266 1.216958
19 0.900189 0.621430 0.501269 0.403216 0.311299 0.389218
19 0.487295 1.223266 1.562460 1.662196 1.487591 1.280566
19 1.142305 1.029610 1.037351 0.916309 0.884498 1.038201
19 1.094104 1.219259 1.324629 1.295970 1.315966 1.222133
19 0.906776 0.586807 0.502982 0.410611 0.295833 0.398803
19 0.495648 1.244382 1.621513 1.613039 1.476903 1.314020
19 1.085165 1.000637 0.987283 0.912176 0.910379 0.995834
19 1.108712 1.173767 1.261227 1.311424 1.304334 1.215241
19 0.942897 0.611334 0.490872 0.408936 0.292105 0.396307
19 0.499318 1.241120 1.576168 1.573554 1.497046 1.282750
19 1.124786 0.978401 0.977051 0.892119 0.891035 1.038591
19 1.120887 1.202101 1.268139 1.321953 1.273994 1.162925
19 0.921385 0.603803 0.509209 0.402550 0.305141 0.394792
19 0.489658 1.216358 1.574291 1.577934 1.486334 1.300454
19 1.092212 0.972501 0.987128 0.859979 0.911254 0.967959
19 1.075704 1.201252 1.280771 1.340118 1.266386 1.206409
19 0.899293 0.585983 0.505233 0.398628 0.304631 0.406588
19 0.521632 1.232077 1.588186 1.592340 1.532990 1.317037
19 1.114083 0.967661 0.999513 0.886715 0.905039 0.998037
19 1.120024 1.207613 1.320445 1.287873 1.275444 1.190159
19 0.899694 0.604550 0.522593 0.399662 0.294264 0.397232
19 0.495364 1.211556 1.550694 1.602024 1.504695 1.306037
19 1.086859 0.995242 0.971519 0.891120 0.890228 1.008321
19 1.074564 1.218749 1.338857 1.246180 1.311083 1.216246
19 0.888526 0.595233 0.498671 0.397618 0.298146 0.386592
19 0.511523 1.225911 1.573972 1.553074 1.515632 1.285030
19 1.103123 0.993613 1.013831 0.912505 0.886939 0.972333
19 1.065175 1.214649 1.269090 1.286823 1.284496 1.198738
19 0.865147 0.602265 0.505239 0.400707 0.298135 0.400779
19 0.503990 1.133458 1.662589 1.612483 1.480428 1.289835
19 1.110862 0.997678 0.959386 0.937161 0.898010 1.020403
19 1.084775 1.236873 1.307445 1.315830 1.272823 1.229067
19 0.912417 0.615622 0.493719 0.396152 0.313824 0.391520
19 0.498641 1.227285 1.603127 1.618655 1.488017 1.309621
19 1.071256 1.033163 0.997637 0.887757 0.911995 0.990786
19 1.070646 1.167679 1.318038 1.295851 1.296524 1.225866
19 0.879717 0.591232 0.496151 0.400755 0.299747 0.397705
19 0.499384 1.197425 1.576973 1.573984 1.508235 1.276836
19 1.074538 0.993754 0.996847 0.940621 0.887315 1.018865
19 1.116438 1.171465 1.320105 1.269219 1.230862 1.214552
19 0.868394 0.605411 0.493160 0.413276 0.306411 0.396373
19 0.493122 1.170862 1.585890 1.591029 1.489059 1.304074
19 1.112727 1.006993 0.984717 0.874120 0.924562 0.986211
19 1.085650 1.187491 1.252080 1.287573 1.287529 1.214889
19 0.912572 0.600045 0.509318 0.402720 0.299906 0.401287
19 0.498093 1.190524 1.591433 1.563904 1.508413 1.274179
19 1.118516 0.995011 1.000990 0.908889 0.911580 0.968588
19 1.095448 1.221124 1.255849 1.310069 1.241355 1.175460
19 0.900695 0.580119 0.490145 0.388225 0.309889 0.401314
19 0.505673 1.194656 1.588690 1.548273 1.491245 1.280201
19 1.118874 1.022822 1.029332 0.915346 0.889224 0.977682
19 1.116867 1.208551 1.254018 1.309243 1.321178 1.201414
19 0.896669 0.590308 0.485535 0.406402 0.298145 0.398132
19 0.517327 1.216428 1.611866 1.604546 1.545600 1.344709
19 1.120449 1.011644 0.958108 0.902227 0.897658 1.001879
19 1.120747 1.134248 1.285198 1.307018 1.287862 1.165994
19 0.915641 0.603322 0.490289 0.402519 0.304930 0.400042
19 0.508006 1.201878 1.587353 1.562899 1.497422 1.305052
19 1.119268 0.997698 1.009148 0.882637 0.885913 0.997792
19 1.076798 1.219686 1.312041 1.307256 1.308812 1.248505
19 0.891560 0.573583 0.501993 0.399595 0.296895 0.392169
19 0.495608 1.204352 1.583910 1.677199 1.471185 1.279379
19 1.049650 1.005030 0.959672 0.890290 0.895038 0.985805
19 1.138255 1.223865 1.334298 1.277057 1.329343 1.211904
19 0.913885 0.612353 0.490912 0.396605 0.305176 0.378755
19 0.515133 1.213275 1.598537 1.607056 1.469102 1.290901
19 1.124206 1.025960 1.053924 0.898669 0.888146 0.989715
19 1.077603 1.198131 1.309951 1.299110 1.328505 1.194379
19 0.893746 0.593025 0.483674 0.387458 0.292925 0.410411
19 0.508953 1.232999 1.557369 1.537004 1.480198 1.304571
19 1.110971 1.020959 1.005686 0.931368 0.895993 0.981738
19 1.063013 1.178665 1.306295 1.276893 1.324355 1.233896
19 0.857347 0.610369 0.477604 0.403212 0.307349 0.400519
19 0.487203 1.185950 1.591627 1.594168 1.493913 1.297143
19 1.104697 0.975829 0.995160 0.927329 0.893076 0.991123
19 1.123720 1.138580 1.330716 1.283571 1.304262 1.202312
19 0.916964 0.596789 0.493220 0.410383 0.285815 0.400163
19 0.486521 1.181722 1.664360 1.598573 1.505852 1.253679
19 1.083961 1.003931 1.007095 0.911104 0.900155 1.010540
19 1.109983 1.156086 1.300962 1.319965 1.315337 1.191267
19 0.885499 0.586580 0.498689 0.409065 0.288289 0.394721
19 0.488602 1.218839 1.582262 1.584940 1.493492 1.311580
19 1.091367 0.939077 1.010866 0.907903 0.896048 0.978319
19 1.107739 1.209102 1.287779 1.294365 1.275816 1.195714
19 0.872092 0.605008 0.490556 0.401905 0.291564 0.395280
19 0.498895 1.160143 1.603685 1.587867 1.447729 1.266116
19 1.113313 1.017911 0.997362 0.907286 0.904029 1.006592
19 1.128292 1.163832 1.317588 1.290068 1.294169 1.192746
19 0.893247 0.585286 0.501833 0.413368 0.299663 0.399989
19 0.493127 1.197181 1.614917 1.588152 1.486386 1.310485
19 1.079804 1.005050 1.016406 0.924479 0.898373 1.027352
19 1.122757 1.176091 1.268334 1.292071 1.326752 1.198265
19 0.889188 0.618627 0.502869 0.381435 0.301903 0.404160
19 0.502256 1.210793 1.597847 1.557811 1.488879 1.275414
19 1.079480 0.974739 1.009050 0.901762 0.891933 0.987013
19 1.099485 1.225901 1.247890 1.309799 1.285811 1.154770
19 0.931753

[CURVES]
;ID         X-Value      Y-Value     

[CONTROLS]

[RULES]

[ENERGY]
GLOBAL EFFICIENCY      75.0000
GLOBAL PRICE           0.0000
DEMAND CHARGE          0.0000

[EMITTERS]
;ID        Flow coefficient

[QUALITY]

[SOURCES]
;Node      Type       Quality    Pattern   

[REACTIONS]
;Type           Pipe/Tank               Coefficient

 ORDER BULK 1
 ORDER TANK 1
 ORDER WALL 1
 GLOBAL BULK 0.0000    
 GLOBAL WALL 0.0000    
 LIMITING POTENTIAL 0.0000    
 ROUGHNESS CORRELATION 0.0000    

[MIXING]
;Tank ID             Model Fraction

[TIMES]
DURATION             672:00:00
HYDRAULIC TIMESTEP   01:00:00
QUALITY TIMESTEP     00:05:00
PATTERN TIMESTEP     01:00:00
PATTERN START        00:00:00
REPORT TIMESTEP      01:00:00
REPORT START         00:00:00
START CLOCKTIME      00:00:00 AM
RULE TIMESTEP        00:06:00
STATISTIC            NONE      

[REPORT]
 Status             	No
 Summary            	No
 Page               	0
 Nodes					ALL
 Links					ALL
 Flow					Yes
 Headloss				No
 Velocity 				No
 Demand 				Yes
 Head 					Yes
 Pressure 				Yes
 Quality 				No
 State 					Yes

[OPTIONS]
UNITS                CMH                 
HEADLOSS             H-W                 
SPECIFIC GRAVITY     1
VISCOSITY            1
TRIALS               40
ACCURACY             0.001
CHECKFREQ            2
MAXCHECK             10
UNBALANCED           CONTINUE 10
DEMAND MULTIPLIER    1
DEMAND MODEL         PDA
MINIMUM PRESSURE     0.00
REQUIRED PRESSURE    0.10
PRESSURE EXPONENT    0.5
EMITTER EXPONENT     0.5
QUALITY              NONE                
DIFFUSIVITY          1
TOLERANCE            0.01

[COORDINATES]
;Node      X-Coord    Y-Coord   
1                4000.000000000       7000.000000000
2                5000.000000000       7000.000000000
3                4000.000000000       6000.000000000
4                5000.000000000       6000.000000000
5                4000.000000000       5000.000000000
6                5000.000000000       5000.000000000
7                6000.000000000       7000.000000000

[VERTICES]
;Link      X-Coord    Y-Coord   

[LABELS]

[BACKDROP]
DIMENSIONS    2900.000    4900.000    5100.000    7100.000
UNITS    METERS
OFFSET    0.00    0.00

[END]
