; Filename: D:/OneDrive/IHE_HI/015. Thesis/Github_repositories\Msc-Thesis/INP_FILES/Twoloops_Base_WNTR.inp
; WNTR: 0.4.2
; Created: 2023-03-07 09:38:39
[TITLE]

[JUNCTIONS]
;ID                      Elevation       Demand Pattern                 
 1                                160             100 53                         ;
 2                                150             100 53                         ;
 3                                150             270 53                         ;
 4                                155             120 53                         ;
 5                                160             200 53                         ;
 6                                165             330 53                         ;

[RESERVOIRS]
;ID                                   Head                  Pattern
 7                                210                            ;

[TANKS]
;ID                              Elevation           Init Level            Min Level            Max Level             Diameter           Min Volume Volume Curve         Overflow            

[PIPES]
;ID                   Node1                Node2                              Length             Diameter            Roughness           Minor Loss               Status
 1                    2                    1                               1000             200             130               0                 Open   ;
 2                    1                    3                               1000             150             130               0                 Open   ;
 3                    2                    4                               1000             450             130               0                 Open   ;
 4                    4                    3                               1000             150             130               0                 Open   ;
 5                    5                    3                               1000             150             130               0                 Open   ;
 6                    4                    6                               1000             400             130               0                 Open   ;
 7                    6                    5                               1000             250             130               0                 Open   ;
 8                    7                    2                               1000             450             130               0                 Open   ;

[PUMPS]
;ID                   Node1                Node2                Properties          

[VALVES]
;ID                   Node1                Node2                            Diameter Type              Setting           Minor Loss

[TAGS]
;type      name       tag       

[DEMANDS]
;ID        Demand     Pattern   

[STATUS]
;ID        Setting   

[PATTERNS]
;ID        Multipliers

53 0.995259 0.813002 0.752681 0.734510 0.667232 0.531910
53 0.569798 0.513850 0.496903 0.492096 0.461752 0.469074
53 0.418265 0.366558 0.338533 0.311846 0.326893 0.313352
53 0.354743 0.360570 0.338728 0.417189 0.423315 0.408193
53 0.568093 0.580807 0.819274 1.002821 1.310360 1.470814
53 1.480572 1.583891 1.514773 1.431212 1.593755 1.632523
53 1.718108 1.695097 1.523386 1.505597 1.405630 1.333643
53 1.264519 1.513885 1.260247 1.212626 1.103237 1.197364
53 0.993483 1.048710 0.976684 1.034408 0.969352 0.928525
53 1.001842 1.031848 1.003991 0.998903 0.917407 0.904339
53 0.863687 0.866564 0.838629 0.794942 0.909581 0.897791
53 0.852318 0.999108 0.945562 1.029842 1.097984 1.084635
53 1.175200 1.040225 1.175115 1.124478 1.137303 1.186807
53 1.234849 1.287373 1.209118 1.377578 1.343101 1.182855
53 1.416084 1.448491 1.394886 1.289498 1.216481 1.370873
53 1.239198 1.331566 1.214996 1.214134 1.103177 1.040515
53 0.900567 0.879013 0.716345 0.663074 0.667793 0.519350
53 0.497976 0.548721 0.464806 0.536271 0.446434 0.412080
53 0.446151 0.396227 0.366700 0.322345 0.284498 0.353616
53 0.342603 0.398344 0.422734 0.397712 0.417270 0.450856
53 0.511293 0.594360 0.831651 1.094925 1.149991 1.339515
53 1.428633 1.720593 1.664540 1.663959 1.552541 1.669680
53 1.535264 1.584056 1.500130 1.595646 1.551893 1.439634
53 1.442213 1.266375 1.183682 1.278192 1.204835 1.187586
53 1.257288 1.122466 0.975609 1.078694 0.921046 0.971639
53 0.999430 1.109411 0.955315 0.932448 0.948071 0.887658
53 0.960838 0.828283 0.820944 0.863498 0.873106 1.026475
53 0.998539 0.977222 0.926474 1.078654 0.988834 0.976547
53 1.178410 1.144826 1.210812 1.195087 1.261692 1.181483
53 1.180285 1.335520 1.237334 1.252867 1.270883 1.304321
53 1.272388 1.193257 1.252438 1.129669 1.348768 1.165371
53 1.185769 1.244456 1.146751 1.253110 0.996299 1.014191
53 0.897879 0.738296 0.733253 0.640793 0.627784 0.592962
53 0.609036 0.560144 0.488925 0.473366 0.488000 0.448391
53 0.415363 0.328596 0.329269 0.292187 0.305039 0.315389
53 0.367217 0.387279 0.418872 0.390211 0.379637 0.416706
53 0.499489 0.650811 0.927787 1.011640 1.131172 1.323592
53 1.426130 1.593492 1.452083 1.630415 1.643019 1.639882
53 1.542658 1.558467 1.426371 1.488023 1.451142 1.494246
53 1.311015 1.418781 1.416570 1.090687 1.223414 1.190461
53 1.057929 1.036948 1.023910 0.992877 0.981459 0.898823
53 1.072924 1.071159 0.951198 0.894775 0.983521 0.892522
53 0.907665 0.868702 0.918225 0.923760 0.860818 0.843609
53 0.854997 1.007717 0.928668 0.995423 1.014327 1.072911
53 0.972206 1.136187 1.183483 1.178883 1.177616 1.236694
53 1.288501 1.069607 1.452561 1.337528 1.255449 1.272391
53 1.338512 1.291489 1.144019 1.465044 1.291378 1.368222
53 1.217187 1.354933 1.220617 1.188824 1.012345 1.070735
53 0.937250 0.855956 0.684140 0.628771 0.682941 0.529105
53 0.534671 0.553932 0.502932 0.497062 0.446823 0.441008
53 0.368643 0.400105 0.327413 0.293248 0.311995 0.308487
53 0.320326 0.349337 0.416651 0.397602 0.399213 0.454843
53 0.466195 0.608438 0.798164 1.019953 1.196964 1.328384
53 1.461510 1.538779 1.530918 1.545020 1.654544 1.530895
53 1.488894 1.551412 1.544877 1.741040 1.436577 1.540362
53 1.471897 1.258578 1.360314 1.156898 1.002577 1.185615
53 0.984111 1.091010 0.989779 1.111602 1.064111 0.972130
53 0.962123 0.932713 0.973545 0.964594 0.932836 0.933151
53 0.931240 0.904252 0.841221 0.810292 0.973685 0.881912
53 0.907749 0.941716 0.889416 0.997200 1.021691 1.116367
53 1.146098 1.123716 1.211569 1.196581 1.198871 1.241381
53 1.243978 1.252653 1.279117 1.218484 1.328581 1.225315
53 1.365647 1.281083 1.306616 1.342196 1.350179 1.167802
53 1.254153 1.306089 1.077736 1.173577 0.933911 0.936957
53 0.902086 0.715020 0.668894 0.590280 0.659333 0.570610
53 0.557417 0.511631 0.489397 0.433684 0.449779 0.411717
53 0.420590 0.388816 0.358767 0.321364 0.289224 0.296016
53 0.364219 0.388170 0.357555 0.410008 0.422110 0.428727
53 0.494448 0.605499 0.746119 1.062912 1.177744 1.332717
53 1.619441 1.612357 1.635599 1.638095 1.776183 1.784221
53 1.689232 1.636268 1.363623 1.544794 1.488290 1.466072
53 1.488451 1.132479 1.255594 1.265528 1.159491 1.046741
53 1.157352 1.079916 0.972000 1.030035 1.049295 0.999632
53 1.051743 1.010718 0.976286 0.912847 0.948787 0.935236
53 0.947295 0.879554 0.905840 0.835469 0.857738 0.913875
53 0.884943 1.019958 1.027788 1.043834 1.073356 1.206821
53 1.069055 0.975068 1.161136 1.169101 1.162739 1.157300
53 1.225212 1.297009 1.260780 1.496114 1.231296 1.240951
53 1.121488 1.320173 1.145135 1.261378 1.278498 1.234400
53 1.402411 1.314591 1.294978 1.086202 1.153221 1.027903
53 0.941656 0.842979 0.672168 0.630974 0.631053 0.475010
53 0.588015 0.535770 0.498629 0.486618 0.429505 0.422370
53 0.426407 0.392242 0.383096 0.304369 0.288146 0.307468
53 0.326933 0.378270 0.409186 0.400621 0.428915 0.421213
53 0.489576 0.614142 0.736996 0.918808 1.115101 1.457195
53 1.545731 1.676519 1.472108 1.432398 1.563270 1.634412
53 1.647874 1.680449 1.586234 1.693744 1.479965 1.377986
53 1.266637 1.282970 1.318885 1.178953 1.259952 1.240940
53 0.943607 1.117340 0.893444 1.035293 1.073492 1.003203
53 0.926486 0.970658 0.984301 0.970369 0.942094 0.918364
53 0.911528 0.821447 0.868841 0.967577 0.879229 0.895470
53 1.005839 0.822846 1.070883 0.987718 1.062312 1.082526
53 1.162203 1.105424 1.100737 1.263977 1.029779 1.231009
53 1.156601 1.224421 1.456878 1.303442 1.321888 1.163677
53 1.243135 1.315887 1.330476 1.351820 1.300673 1.330071
53 1.304494 1.104378 1.202664 1.199770 1.118309 0.976405
53 0.856496 0.740668 0.705342 0.691475 0.529735 0.542671
53 0.502202 0.542983 0.483371 0.466702 0.451836 0.442958
53 0.390583 0.297391 0.340500 0.313779 0.296048 0.296622
53 0.355551 0.388693 0.388719 0.396225 0.379982 0.422639
53 0.453487 0.652269 0.770736 1.028701 1.098771 1.303797
53 1.457209 1.394430 1.611054 1.587300 1.457568 1.490882
53 1.658092 1.665991 1.547288 1.570651 1.520146 1.486687
53 1.517438 1.232715 1.352764 1.216816 1.176854 1.123251
53 1.075240 0.984116 1.043493 1.112293 0.996632 0.999232
53 0.962155 0.998903 1.027970 0.959303 0.927737 0.946827
53 0.850428 0.899089 0.925037 0.959153 0.895119 0.995457
53 1.003357 0.914010 0.926924 1.007857 1.116910 1.071638
53 1.060357 1.228095 1.167167 1.009385 1.222836 1.267873
53 1.275406 1.317669 1.294753 1.203555 1.277534 1.229029
53 1.227246 1.201988 1.338115 1.311228 1.265043 1.239071
53 1.268133 1.320903 1.055696 1.172861 1.044717 0.885326
53 0.995259

[CURVES]
;ID         X-Value      Y-Value     

[CONTROLS]

[RULES]

[ENERGY]
GLOBAL EFFICIENCY      75.0000
GLOBAL PRICE           0.0000
DEMAND CHARGE          0.0000

[EMITTERS]
;ID        Flow coefficient

[QUALITY]

[SOURCES]
;Node      Type       Quality    Pattern   

[REACTIONS]
;Type           Pipe/Tank               Coefficient

 ORDER BULK 1
 ORDER TANK 1
 ORDER WALL 1
 GLOBAL BULK 0.0000    
 GLOBAL WALL 0.0000    
 LIMITING POTENTIAL 0.0000    
 ROUGHNESS CORRELATION 0.0000    

[MIXING]
;Tank ID             Model Fraction

[TIMES]
DURATION             168:00:00
HYDRAULIC TIMESTEP   00:15:00
QUALITY TIMESTEP     00:05:00
PATTERN TIMESTEP     00:15:00
PATTERN START        00:00:00
REPORT TIMESTEP      00:15:00
REPORT START         00:00:00
START CLOCKTIME      00:00:00 AM
RULE TIMESTEP        00:06:00
STATISTIC            NONE      

[REPORT]
 Status             	No
 Summary            	No
 Page               	0
 Nodes					ALL
 Links					ALL
 Flow					Yes
 Headloss				No
 Velocity 				No
 Demand 				Yes
 Head 					Yes
 Pressure 				Yes
 Quality 				No
 State 					Yes

[OPTIONS]
UNITS                CMH                 
HEADLOSS             H-W                 
SPECIFIC GRAVITY     1
VISCOSITY            1
TRIALS               40
ACCURACY             0.001
CHECKFREQ            2
MAXCHECK             10
UNBALANCED           CONTINUE 10
DEMAND MULTIPLIER    1
DEMAND MODEL         PDA
MINIMUM PRESSURE     0.00
REQUIRED PRESSURE    0.10
PRESSURE EXPONENT    0.5
EMITTER EXPONENT     0.5
QUALITY              NONE                
DIFFUSIVITY          1
TOLERANCE            0.01

[COORDINATES]
;Node      X-Coord    Y-Coord   
1                4000.000000000       7000.000000000
2                5000.000000000       7000.000000000
3                4000.000000000       6000.000000000
4                5000.000000000       6000.000000000
5                4000.000000000       5000.000000000
6                5000.000000000       5000.000000000
7                6000.000000000       7000.000000000

[VERTICES]
;Link      X-Coord    Y-Coord   

[LABELS]

[BACKDROP]
DIMENSIONS    2900.000    4900.000    5100.000    7100.000
UNITS    METERS
OFFSET    0.00    0.00

[END]
