; Filename: D:/OneDrive/IHE_HI/015. Thesis/Github_repositories\Msc-Thesis/INP_FILES/Twoloops_Base_WNTR.inp
; WNTR: 0.4.2
; Created: 2023-03-07 09:37:37
[TITLE]

[JUNCTIONS]
;ID                      Elevation       Demand Pattern                 
 1                                160             100 3                          ;
 2                                150             100 3                          ;
 3                                150             270 3                          ;
 4                                155             120 3                          ;
 5                                160             200 3                          ;
 6                                165             330 3                          ;

[RESERVOIRS]
;ID                                   Head                  Pattern
 7                                210                            ;

[TANKS]
;ID                              Elevation           Init Level            Min Level            Max Level             Diameter           Min Volume Volume Curve         Overflow            

[PIPES]
;ID                   Node1                Node2                              Length             Diameter            Roughness           Minor Loss               Status
 1                    2                    1                               1000             200             130               0                 Open   ;
 2                    1                    3                               1000             150             130               0                 Open   ;
 3                    2                    4                               1000             450             130               0                 Open   ;
 4                    4                    3                               1000             150             130               0                 Open   ;
 5                    5                    3                               1000             150             130               0                 Open   ;
 6                    4                    6                               1000             400             130               0                 Open   ;
 7                    6                    5                               1000             250             130               0                 Open   ;
 8                    7                    2                               1000             450             130               0                 Open   ;

[PUMPS]
;ID                   Node1                Node2                Properties          

[VALVES]
;ID                   Node1                Node2                            Diameter Type              Setting           Minor Loss

[TAGS]
;type      name       tag       

[DEMANDS]
;ID        Demand     Pattern   

[STATUS]
;ID        Setting   

[PATTERNS]
;ID        Multipliers

3 1.058765 0.896357 0.907457 0.971854 0.906543 0.664304
3 0.778477 0.677367 0.659781 0.674042 0.639107 0.703586
3 0.645662 0.594276 0.601069 0.583897 0.638565 0.535724
3 0.555945 0.486378 0.390972 0.552454 0.556618 0.468620
3 0.613488 0.421858 0.489318 0.471274 0.545657 0.534083
3 0.464889 0.466495 0.401596 0.345972 0.406906 0.417538
3 0.449212 0.434938 0.361553 0.352900 0.314999 0.292074
3 0.273486 0.382680 0.296198 0.292332 0.263623 0.322646
3 0.251583 0.296987 0.281651 0.329532 0.309996 0.297350
3 0.347221 0.374740 0.372583 0.391541 0.363997 0.381114
3 0.373102 0.387572 0.369505 0.332145 0.407739 0.384566
3 0.336836 0.425690 0.377184 0.429436 0.477388 0.474957
3 0.556970 0.472264 0.608105 0.592758 0.632667 0.709969
3 0.791576 0.887258 0.837874 1.105574 1.129018 0.965763
3 1.378590 1.492660 1.459149 1.327331 1.244716 1.583404
3 1.407790 1.680877 1.556780 1.700007 1.625003 1.698206
3 1.601680 1.898488 1.639360 1.689543 1.933838 1.408978
3 1.420933 1.783045 1.431654 1.931702 1.545325 1.486081
3 1.907671 1.829769 1.883989 1.724285 1.438708 1.866527
3 1.517833 1.676048 1.688978 1.509641 1.616726 1.651528
3 1.556464 1.323417 1.516730 1.651222 1.341963 1.404392
3 1.347439 1.648553 1.465744 1.410479 1.233976 1.389554
3 1.212337 1.285707 1.183065 1.329600 1.298345 1.184858
3 1.240145 1.047582 0.986863 1.194264 1.147532 1.184781
3 1.362146 1.189293 0.976024 1.180926 0.912972 0.993193
3 1.025095 1.199463 0.941195 0.927392 0.996182 0.935916
3 1.112664 0.890949 0.884074 0.955563 0.950679 1.195336
3 1.098817 1.013682 0.882532 1.090936 0.904717 0.848355
3 1.118803 1.026590 1.079712 1.012368 1.055916 0.900651
3 0.855068 1.008165 0.858965 0.860713 0.873745 0.908797
3 0.868141 0.771088 0.832014 0.688751 0.938462 0.740623
3 0.784276 0.886999 0.818740 1.023627 0.775246 0.918667
3 0.896465 0.800164 0.960433 0.904187 0.999401 1.013158
3 1.149089 1.081127 0.927278 0.948845 1.089389 1.055706
3 1.064013 0.845889 1.015449 0.950873 1.064191 1.033407
3 1.147713 1.093802 1.152283 1.026105 0.981857 1.047369
3 1.098128 1.149819 1.367681 1.118715 1.023201 1.099908
3 1.094222 1.211290 0.984696 1.180080 1.199993 1.218249
3 1.128322 1.180909 1.045896 1.168855 1.172096 1.301008
3 1.112882 1.366234 1.466130 1.017460 1.344709 1.383115
3 1.217133 1.251589 1.288282 1.268019 1.267035 1.088173
3 1.457158 1.446501 1.198202 1.111886 1.369523 1.225772
3 1.318454 1.258307 1.389936 1.390905 1.206829 1.121901
3 1.096530 1.382876 1.148652 1.237504 1.225318 1.295022
3 1.048284 1.321812 1.361551 1.300703 1.243956 1.289865
3 1.320593 0.911597 1.496330 1.288968 1.148220 1.167356
3 1.259249 1.170017 0.929290 1.383709 1.113788 1.216596
3 1.005335 1.216535 1.056656 1.058972 0.866228 1.047820
3 1.058765

[CURVES]
;ID         X-Value      Y-Value     

[CONTROLS]

[RULES]

[ENERGY]
GLOBAL EFFICIENCY      75.0000
GLOBAL PRICE           0.0000
DEMAND CHARGE          0.0000

[EMITTERS]
;ID        Flow coefficient

[QUALITY]

[SOURCES]
;Node      Type       Quality    Pattern   

[REACTIONS]
;Type           Pipe/Tank               Coefficient

 ORDER BULK 1
 ORDER TANK 1
 ORDER WALL 1
 GLOBAL BULK 0.0000    
 GLOBAL WALL 0.0000    
 LIMITING POTENTIAL 0.0000    
 ROUGHNESS CORRELATION 0.0000    

[MIXING]
;Tank ID             Model Fraction

[TIMES]
DURATION             24:00:00
HYDRAULIC TIMESTEP   00:05:00
QUALITY TIMESTEP     00:05:00
PATTERN TIMESTEP     00:05:00
PATTERN START        00:00:00
REPORT TIMESTEP      00:05:00
REPORT START         00:00:00
START CLOCKTIME      00:00:00 AM
RULE TIMESTEP        00:06:00
STATISTIC            NONE      

[REPORT]
 Status             	No
 Summary            	No
 Page               	0
 Nodes					ALL
 Links					ALL
 Flow					Yes
 Headloss				No
 Velocity 				No
 Demand 				Yes
 Head 					Yes
 Pressure 				Yes
 Quality 				No
 State 					Yes

[OPTIONS]
UNITS                CMH                 
HEADLOSS             H-W                 
SPECIFIC GRAVITY     1
VISCOSITY            1
TRIALS               40
ACCURACY             0.001
CHECKFREQ            2
MAXCHECK             10
UNBALANCED           CONTINUE 10
DEMAND MULTIPLIER    1
DEMAND MODEL         PDA
MINIMUM PRESSURE     0.00
REQUIRED PRESSURE    0.10
PRESSURE EXPONENT    0.5
EMITTER EXPONENT     0.5
QUALITY              NONE                
DIFFUSIVITY          1
TOLERANCE            0.01

[COORDINATES]
;Node      X-Coord    Y-Coord   
1                4000.000000000       7000.000000000
2                5000.000000000       7000.000000000
3                4000.000000000       6000.000000000
4                5000.000000000       6000.000000000
5                4000.000000000       5000.000000000
6                5000.000000000       5000.000000000
7                6000.000000000       7000.000000000

[VERTICES]
;Link      X-Coord    Y-Coord   

[LABELS]

[BACKDROP]
DIMENSIONS    2900.000    4900.000    5100.000    7100.000
UNITS    METERS
OFFSET    0.00    0.00

[END]
