; Filename: D:/OneDrive/IHE_HI/015. Thesis/Github_repositories\Msc-Thesis/INP_FILES/Twoloops_Base_WNTR.inp
; WNTR: 0.4.2
; Created: 2023-03-07 09:40:37
[TITLE]

[JUNCTIONS]
;ID                      Elevation       Demand Pattern                 
 1                                160             100 71                         ;
 2                                150             100 71                         ;
 3                                150             270 71                         ;
 4                                155             120 71                         ;
 5                                160             200 71                         ;
 6                                165             330 71                         ;

[RESERVOIRS]
;ID                                   Head                  Pattern
 7                                210                            ;

[TANKS]
;ID                              Elevation           Init Level            Min Level            Max Level             Diameter           Min Volume Volume Curve         Overflow            

[PIPES]
;ID                   Node1                Node2                              Length             Diameter            Roughness           Minor Loss               Status
 1                    2                    1                               1000             200             130               0                 Open   ;
 2                    1                    3                               1000             150             130               0                 Open   ;
 3                    2                    4                               1000             450             130               0                 Open   ;
 4                    4                    3                               1000             150             130               0                 Open   ;
 5                    5                    3                               1000             150             130               0                 Open   ;
 6                    4                    6                               1000             400             130               0                 Open   ;
 7                    6                    5                               1000             250             130               0                 Open   ;
 8                    7                    2                               1000             450             130               0                 Open   ;

[PUMPS]
;ID                   Node1                Node2                Properties          

[VALVES]
;ID                   Node1                Node2                            Diameter Type              Setting           Minor Loss

[TAGS]
;type      name       tag       

[DEMANDS]
;ID        Demand     Pattern   

[STATUS]
;ID        Setting   

[PATTERNS]
;ID        Multipliers

71 1.058765 0.825710 0.780513 0.792546 0.712053 0.509822
71 0.590284 0.510711 0.494839 0.499984 0.464390 0.494170
71 0.430442 0.368329 0.344387 0.315926 0.344822 0.310748
71 0.359103 0.347586 0.297880 0.427685 0.437230 0.395510
71 0.613488 0.543789 0.820770 0.995227 1.383934 1.550256
71 1.489664 1.607318 1.457954 1.302519 1.571103 1.642638
71 1.796847 1.771137 1.499223 1.487055 1.342717 1.250836
71 1.168372 1.619638 1.233745 1.190804 1.043458 1.232942
71 0.922471 1.039670 0.939714 1.050053 0.948919 0.881332
71 1.000711 1.049084 1.006652 1.010773 0.893209 0.890925
71 0.839479 0.853826 0.809953 0.733708 0.915968 0.883006
71 0.790714 1.017104 0.909270 1.031975 1.128663 1.090188
71 1.225334 0.984734 1.193581 1.092356 1.095504 1.158339
71 1.219167 1.290256 1.148531 1.424671 1.367438 1.102789
71 1.493473 1.547119 1.456312 1.280117 1.160802 1.425254
71 1.218718 1.392227 1.224993 1.258940 1.118573 1.068727
71 0.900945 0.935728 0.719954 0.673484 0.712989 0.488889
71 0.470580 0.568829 0.441344 0.573609 0.438860 0.399181
71 0.476918 0.417777 0.391334 0.333425 0.274163 0.377855
71 0.338870 0.410543 0.437890 0.395223 0.427155 0.466615
71 0.518821 0.566377 0.841398 1.148735 1.116652 1.331425
71 1.403100 1.835155 1.707567 1.690432 1.502412 1.704566
71 1.492107 1.586069 1.460463 1.637136 1.586489 1.427487
71 1.464528 1.207119 1.106137 1.300080 1.212788 1.216645
71 1.362146 1.162598 0.937923 1.123863 0.868409 0.953188
71 0.996691 1.178355 0.925525 0.900016 0.944315 0.863123
71 1.001397 0.790025 0.780477 0.847968 0.855177 1.097479
71 1.034417 0.980627 0.877456 1.113328 0.946746 0.910041
71 1.230683 1.159069 1.253076 1.210037 1.302820 1.149465
71 1.128226 1.370501 1.195557 1.216819 1.247076 1.305232
71 1.253981 1.121730 1.218900 1.013735 1.381280 1.082749
71 1.129670 1.247045 1.111252 1.323899 0.940443 1.024854
71 0.896465 0.701201 0.748133 0.636350 0.646307 0.611574
71 0.655681 0.587867 0.481541 0.468768 0.508137 0.459699
71 0.425605 0.305060 0.328949 0.283162 0.308398 0.314143
71 0.379894 0.392101 0.431453 0.382721 0.364433 0.409699
71 0.499149 0.660462 1.001624 1.009926 1.085287 1.304886
71 1.398927 1.623320 1.353472 1.634525 1.653209 1.654902
71 1.504429 1.543420 1.337530 1.457764 1.418571 1.518508
71 1.245865 1.461130 1.494283 0.987572 1.243754 1.221436
71 1.029882 1.020068 1.018424 0.980835 0.969099 0.831829
71 1.119180 1.114603 0.918664 0.837227 1.003399 0.871230
71 0.912776 0.857389 0.942612 0.948404 0.834696 0.792703
71 0.795179 1.031452 0.881114 0.974610 0.989235 1.070648
71 0.887009 1.144671 1.207528 1.183030 1.162694 1.241485
71 1.308587 0.927312 1.554269 1.357921 1.221352 1.252015
71 1.364186 1.285449 1.038200 1.572692 1.285630 1.420834
71 1.182033 1.431172 1.234361 1.216756 0.967186 1.119093
71 0.962084 0.897299 0.666279 0.616313 0.738235 0.505147
71 0.531740 0.577514 0.504886 0.508261 0.439509 0.447394
71 0.347739 0.424240 0.325854 0.284930 0.319991 0.302640
71 0.301743 0.328864 0.427751 0.395040 0.397061 0.473260
71 0.443659 0.589840 0.785585 1.023781 1.194939 1.312873
71 1.457894 1.532131 1.484863 1.492200 1.672418 1.473258
71 1.414823 1.531662 1.535041 1.879459 1.394295 1.595368
71 1.514000 1.194125 1.400523 1.097924 0.875691 1.213360
71 0.906852 1.110170 0.961540 1.178710 1.106851 0.954007
71 0.934512 0.883859 0.955908 0.953592 0.918923 0.938946
71 0.952067 0.916639 0.814273 0.759291 1.022808 0.856541
71 0.883099 0.921450 0.815693 0.977572 1.001507 1.143075
71 1.176830 1.123886 1.254337 1.212528 1.198118 1.249295
71 1.234381 1.232388 1.265195 1.159514 1.343238 1.173555
71 1.409412 1.268106 1.309195 1.367946 1.383631 1.086802
71 1.243643 1.349766 0.996227 1.191345 0.836463 0.896131
71 0.903477 0.662407 0.640869 0.552162 0.698888 0.574322
71 0.569649 0.507013 0.482328 0.402631 0.444435 0.398576
71 0.434317 0.405426 0.378111 0.331790 0.282040 0.281854
71 0.374897 0.393586 0.329258 0.415716 0.435221 0.429734
71 0.490747 0.584942 0.698845 1.095378 1.162906 1.320094
71 1.721113 1.654762 1.659332 1.647325 1.875148 1.895468
71 1.748721 1.673088 1.232950 1.552382 1.480484 1.471551
71 1.541592 0.983961 1.225989 1.278973 1.137215 0.981904
71 1.195586 1.091680 0.931907 1.042766 1.082159 0.999844
71 1.083879 1.013867 0.960477 0.867347 0.945509 0.942421
71 0.978825 0.875476 0.921971 0.801253 0.829563 0.909813
71 0.845090 1.051853 1.046313 1.055295 1.087617 1.293832
71 1.048425 0.876139 1.170284 1.166727 1.137898 1.109161
71 1.203106 1.306316 1.234634 1.622231 1.181096 1.199615
71 1.002479 1.333256 1.040060 1.233249 1.264163 1.197798
71 1.490740 1.363936 1.358296 1.045719 1.201980 1.047708
71 0.969427 0.875672 0.646325 0.619985 0.651756 0.414989
71 0.620647 0.547243 0.497715 0.490854 0.410645 0.416331
71 0.444011 0.411136 0.418659 0.303465 0.280243 0.300943
71 0.312753 0.377087 0.415309 0.400071 0.446563 0.417211
71 0.482627 0.599347 0.683640 0.855207 1.058501 1.527558
71 1.598263 1.761698 1.386846 1.304496 1.520294 1.645787
71 1.679790 1.746725 1.603968 1.800633 1.466609 1.324740
71 1.171901 1.234779 1.331475 1.134682 1.304650 1.305568
71 0.839345 1.154054 0.800981 1.051529 1.122487 1.005796
71 0.875117 0.947100 0.973835 0.963217 0.934354 0.914301
71 0.919213 0.778631 0.860306 1.021432 0.865382 0.879137
71 1.046583 0.723333 1.118138 0.961768 1.069210 1.086673
71 1.203671 1.093399 1.069618 1.324855 0.916299 1.232009
71 1.088753 1.185336 1.561463 1.301110 1.332083 1.070825
71 1.205224 1.326112 1.348963 1.383987 1.301122 1.357250
71 1.327544 1.013581 1.204441 1.234999 1.143794 0.961877
71 0.827494 0.705153 0.701615 0.720819 0.482892 0.527756
71 0.477625 0.559264 0.472285 0.457661 0.447863 0.450644
71 0.384304 0.253052 0.347666 0.319148 0.293414 0.282865
71 0.360451 0.394458 0.381199 0.392745 0.365008 0.419587
71 0.422479 0.662891 0.739873 1.038360 1.031284 1.271895
71 1.450726 1.291549 1.618424 1.562667 1.344125 1.406570
71 1.696819 1.722627 1.539058 1.595477 1.533577 1.505908
71 1.589903 1.151020 1.387940 1.197786 1.166153 1.109420
71 1.058734 0.932014 1.051062 1.179862 0.994387 0.999176
71 0.934566 0.994176 1.046617 0.944773 0.910425 0.961739
71 0.817380 0.908034 0.953966 1.007393 0.891866 1.045783
71 1.042446 0.875272 0.878206 0.995333 1.160206 1.068525
71 1.033928 1.297851 1.180335 0.900534 1.238059 1.293449
71 1.286762 1.340750 1.291254 1.134632 1.258159 1.179745
71 1.178744 1.136281 1.361695 1.316333 1.241739 1.205584
71 1.266943 1.374456 0.959494 1.190151 1.021141 0.810078
71 0.724887 0.721471 0.726537 0.672906 0.543661 0.622509
71 0.615777 0.539099 0.470430 0.534266 0.492377 0.468851
71 0.373741 0.260751 0.399552 0.256477 0.298927 0.392788
71 0.359713 0.416121 0.339904 0.330082 0.381004 0.473816
71 0.482688 0.585770 0.833206 1.123942 1.026607 1.188027
71 1.351241 1.718282 1.637571 1.970565 1.780162 1.611674
71 1.802412 1.614475 1.449690 1.637679 1.395551 1.415518
71 1.595791 1.341531 1.195592 1.187533 1.314795 1.080787
71 1.057444 1.008062 1.051123 0.971969 0.839816 0.910657
71 0.909930 1.131071 1.081267 1.038713 0.905508 0.849043
71 0.854323 0.792509 1.101807 0.687680 0.950761 0.801794
71 0.934865 0.876071 0.882237 0.909585 1.236584 1.061992
71 1.015773 1.185903 1.148603 1.257097 0.981089 1.266838
71 1.355606 1.069858 1.358265 1.528619 1.304654 1.409980
71 1.387174 1.208534 1.307927 1.099302 1.241331 1.323558
71 1.361746 1.243627 1.286398 1.020431 1.069098 1.000121
71 1.066463 0.776937 0.675455 0.648840 0.544853 0.575934
71 0.519389 0.425669 0.497071 0.465014 0.383064 0.428532
71 0.459574 0.382871 0.349929 0.264712 0.314307 0.321967
71 0.366623 0.396108 0.345609 0.399784 0.371942 0.425077
71 0.455130 0.719852 0.746850 0.923040 1.208950 1.206064
71 1.404638 1.420209 1.825788 1.751884 1.618379 1.554077
71 1.750547 1.645101 1.637309 1.529394 1.246765 1.441458
71 1.333727 1.442679 1.431540 1.163421 1.248779 1.342582
71 1.026552 1.240934 0.944140 1.013261 0.998885 1.000464
71 0.919475 0.946521 0.933228 1.013176 0.985180 1.130239
71 1.023389 0.840516 0.910285 0.975218 0.902754 0.913562
71 0.949595 1.056425 0.915168 0.993208 1.101453 1.109827
71 1.126354 1.081916 1.259006 1.422892 1.248770 1.205758
71 1.353473 1.213876 1.202540 1.311226 0.969128 1.152600
71 1.254765 1.124534 1.168220 1.246638 1.086415 1.236948
71 1.201943 1.243725 1.338502 1.166711 1.082357 1.008124
71 0.920465 0.713217 0.702772 0.667448 0.517754 0.613956
71 0.597362 0.485819 0.487933 0.438088 0.489813 0.385645
71 0.391101 0.332645 0.331431 0.250871 0.339794 0.286654
71 0.350287 0.371969 0.369515 0.365806 0.440126 0.404761
71 0.513559 0.585333 0.764154 1.062107 1.311649 1.327954
71 1.258348 1.858184 1.462952 1.373858 2.050037 1.552004
71 1.366123 1.472982 1.616955 1.562593 1.372241 1.723581
71 1.335264 1.194702 1.424890 1.410876 1.095386 0.983684
71 1.213348 0.844788 0.905535 1.108743 0.994465 0.972939
71 1.038946 0.990625 0.870131 1.106293 1.080072 0.943441
71 0.904062 1.092885 0.857272 0.863775 0.932803 1.055326
71 1.095196 0.946980 1.030833 0.885162 1.019147 0.985865
71 0.989249 1.312381 1.056507 1.110322 1.243902 1.389078
71 1.318914 1.637088 1.290293 1.340751 1.342605 1.489935
71 1.365941 1.285433 1.179313 1.335436 1.482175 1.236392
71 1.337089 1.271110 1.303622 1.054627 1.333539 0.870511
71 0.867100 0.868419 0.732027 0.701195 0.570234 0.560816
71 0.539728 0.599935 0.534521 0.518525 0.427676 0.473229
71 0.409023 0.414452 0.396164 0.296347 0.287811 0.289845
71 0.343202 0.365527 0.414380 0.395642 0.387889 0.472698
71 0.453106 0.663896 0.783864 1.087678 1.366231 1.310682
71 1.531630 1.576441 1.472092 1.663360 1.674795 1.684126
71 1.568256 1.595929 1.380646 1.478497 1.583394 1.587964
71 1.349248 1.369449 1.329647 1.270451 1.257414 0.936010
71 1.094574 1.087661 0.928891 1.180169 1.016156 1.155548
71 0.924207 0.914720 1.022425 0.816402 0.974206 0.933447
71 0.991410 0.947760 0.844837 0.789468 1.054107 0.847096
71 0.845950 0.866655 1.111731 0.973370 0.972678 1.091125
71 1.077236 1.047281 1.233930 1.297587 1.318238 1.323803
71 1.309038 1.055194 1.517003 1.346407 1.386057 1.448229
71 1.486336 1.354964 1.359487 1.225458 1.304302 1.179176
71 1.178491 1.129719 1.181277 1.267250 1.422574 1.017113
71 0.778643 0.894372 0.689548 0.604686 0.612591 0.494942
71 0.551061 0.513977 0.504919 0.498582 0.460885 0.432134
71 0.411373 0.379017 0.295738 0.262007 0.298151 0.271803
71 0.351250 0.415722 0.424284 0.359367 0.367821 0.441243
71 0.479935 0.616185 0.865800 0.914080 1.151852 1.243507
71 1.313914 1.416010 1.708394 1.632667 1.484630 1.579973
71 1.337791 1.465097 1.894886 1.519572 1.609749 1.448307
71 1.457789 1.445146 1.156400 1.241507 1.381249 1.052993
71 1.037692 1.029584 1.059906 1.064006 1.126741 1.049230
71 0.997312 1.132665 1.070411 0.834357 1.194645 1.088081
71 0.884861 0.919141 0.998404 0.871523 0.965732 1.021586
71 0.848850 0.913562 1.092141 1.073952 1.149146 1.062037
71 1.068209 0.898923 1.015922 1.178181 1.298947 1.294818
71 1.242235 1.248180 1.328233 1.317160 1.490112 1.322035
71 1.107438 1.135047 1.500603 1.150902 1.399385 1.254702
71 1.248360 1.223933 1.346566 1.124809 1.076483 0.845393
71 0.918602 0.836102 0.727933 0.737965 0.603310 0.581936
71 0.627934 0.438182 0.477209 0.548757 0.500651 0.460696
71 0.433306 0.375803 0.383553 0.317274 0.307196 0.322300
71 0.354917 0.336074 0.430827 0.396209 0.475763 0.423985
71 0.521046 0.652028 0.765921 1.114835 1.428608 1.349653
71 1.422856 1.493765 1.297222 1.595369 1.668590 1.787942
71 1.753608 1.515186 1.516457 1.705751 1.473980 1.383499
71 1.604911 1.495877 1.302443 1.171413 0.952907 1.211460
71 1.001399 0.853774 1.195714 1.076445 0.886099 0.877958
71 1.090944 0.917671 1.129615 1.041578 1.004880 0.961872
71 0.917231 0.963655 0.841609 0.894416 0.967675 0.971762
71 0.831830 0.923470 1.025280 0.984754 1.238653 1.033990
71 1.082156 1.209905 1.185341 1.155625 1.109221 1.266581
71 1.389129 1.344520 1.198836 1.533924 1.117586 1.096738
71 1.424872 1.329921 1.231161 1.160365 1.601704 1.304400
71 1.337757 1.280010 1.252177 1.208871 1.159190 0.960742
71 0.873752 0.655713 0.655457 0.665011 0.662701 0.598891
71 0.520703 0.453057 0.361132 0.535578 0.430821 0.412081
71 0.405263 0.312752 0.318217 0.367588 0.315162 0.328655
71 0.293099 0.465313 0.343088 0.478617 0.317323 0.487257
71 0.580903 0.583875 0.851557 1.069737 1.102345 1.155780
71 1.273633 1.632539 1.586382 1.532594 1.785098 1.699523
71 1.479126 1.391122 1.641241 1.450977 1.514881 1.687655
71 1.479506 1.238398 1.320886 1.126721 1.384786 1.079753
71 1.122800 1.094958 1.048576 0.812942 0.855358 0.954111
71 1.035595 0.992134 0.904285 0.848804 0.915408 0.881151
71 0.946155 0.856770 0.934780 0.834061 0.876964 0.887949
71 0.870811 1.032885 0.918640 0.973088 1.044273 0.936668
71 1.064257 1.043550 1.102878 1.165634 1.104010 1.202451
71 1.423052 1.279739 1.448884 1.352223 1.407747 1.202046
71 1.313638 1.317965 1.222937 1.196310 1.106265 1.482201
71 1.146431 1.407582 1.143901 1.048005 1.147319 0.935192
71 0.951161 0.767517 0.745087 0.584771 0.649881 0.592615
71 0.489493 0.655612 0.527006 0.590267 0.531055 0.423282
71 0.383509 0.349219 0.269405 0.284452 0.307403 0.365669
71 0.321294 0.413568 0.349896 0.377908 0.384024 0.443101
71 0.522865 0.697573 0.880011 1.038874 1.246844 1.566364
71 1.391984 1.668736 1.310697 1.691061 1.549074 1.617766
71 1.766414 1.607067 1.697688 1.759399 1.558364 1.628575
71 1.362737 1.354145 1.232059 1.375248 1.242302 1.085970
71 1.117014 1.172911 1.028086 0.915008 1.013191 0.801394
71 1.080688 0.963609 0.953069 1.067012 0.823508 1.104461
71 0.856778 0.839328 0.971679 0.949640 1.120611 0.900538
71 0.933348 0.828309 0.966790 0.952577 1.004757 0.888578
71 1.282667 0.964312 0.825886 1.033299 1.127539 1.088170
71 1.396580 1.265364 1.303300 1.386713 1.343965 1.430457
71 1.155768 1.229342 1.389505 0.973174 1.121226 1.353896
71 1.208930 1.356705 1.297102 1.009514 1.124005 1.118150
71 0.913269 0.716335 0.773450 0.688598 0.632557 0.605496
71 0.377638 0.564242 0.590407 0.501234 0.466618 0.461475
71 0.413529 0.387619 0.329799 0.282285 0.269870 0.285589
71 0.300392 0.339467 0.470451 0.431718 0.377288 0.410539
71 0.505628 0.594621 0.822547 1.093077 1.195711 1.397068
71 1.596976 1.506604 1.645566 1.573999 1.623090 1.564830
71 1.515381 1.608501 1.647992 1.555845 1.574809 1.350274
71 1.239166 1.411777 1.389425 1.251569 1.353713 1.247838
71 1.394863 1.040938 0.929044 0.936116 0.943450 1.046885
71 0.786969 1.138639 0.976070 0.956884 0.850767 0.913900
71 0.901192 0.874871 0.911536 0.834506 0.819377 0.970413
71 0.954044 0.991284 1.105903 0.921662 0.961997 1.211621
71 0.936883 0.976355 1.241258 1.200594 1.212628 1.218240
71 1.262307 1.271231 1.476208 1.254903 1.285510 1.536763
71 1.303576 1.590834 1.289071 1.481823 1.084805 1.309112
71 1.068703 1.345334 1.054456 1.179473 1.049603 0.882585
71 0.754258 0.753367 0.834679 0.628455 0.655033 0.561819
71 0.586330 0.423823 0.479841 0.525861 0.450322 0.427699
71 0.382782 0.405727 0.339561 0.307071 0.319292 0.335919
71 0.355604 0.438840 0.397588 0.412609 0.376567 0.433630
71 0.579388 0.595403 0.724413 1.115304 1.182148 1.364627
71 1.460316 1.561004 1.736085 1.487955 1.463044 1.631093
71 1.342970 1.363952 1.850765 1.649562 1.498492 1.638337
71 1.262147 1.312485 1.381049 1.356281 1.254091 0.853281
71 0.993511 1.112946 0.995400 1.267742 1.092656 1.055085
71 0.891449 1.002443 1.024120 1.091744 1.037738 1.019955
71 0.816848 1.010741 0.759938 0.839269 0.938769 0.906179
71 0.849680 0.892252 0.845175 1.081257 1.184573 1.065500
71 1.055962 0.958052 1.252198 1.431972 0.984305 1.098759
71 1.172854 1.210644 1.329555 1.517911 1.438378 1.371698
71 1.205889 1.154936 1.198947 1.505373 1.291973 1.231692
71 1.246582 1.342874 1.042458 1.309202 1.096983 0.976602
71 0.939856 0.811280 0.686462 0.631095 0.547868 0.602132
71 0.510390 0.468972 0.508293 0.544098 0.455582 0.405194
71 0.416156 0.434378 0.281874 0.317410 0.306153 0.354108
71 0.382706 0.372950 0.332619 0.433825 0.368830 0.386771
71 0.557418 0.578375 0.931648 1.048273 1.238294 1.393182
71 1.226588 1.273632 1.634488 1.716509 1.641181 1.484480
71 1.603028 1.568067 1.410350 1.688894 1.240459 1.543684
71 1.462882 1.492099 1.169309 1.257989 1.451904 1.219739
71 1.111064 1.119542 1.041034 1.232426 1.098364 0.990759
71 1.028862 0.966680 1.120985 0.843145 0.800660 1.059312
71 1.093781 0.927147 0.891583 0.945080 0.841765 0.935722
71 0.948399 1.033025 0.844200 0.974588 1.140856 1.003591
71 0.990730 1.352881 1.151789 1.104774 0.996916 1.319183
71 1.346350 1.244717 1.156710 1.303730 1.197383 1.180204
71 1.286582 1.163811 1.334879 1.382827 1.190848 1.112895
71 1.468187 1.123926 1.120807 1.171358 1.144819 0.972611
71 0.941471 0.762104 0.641888 0.739805 0.749306 0.660872
71 0.546713 0.613634 0.517785 0.457342 0.479146 0.427356
71 0.360675 0.331211 0.356198 0.249272 0.318124 0.265557
71 0.274342 0.310161 0.478671 0.393568 0.405926 0.487850
71 0.546709 0.547789 0.888032 1.032891 1.158999 1.354934
71 1.654674 1.411536 1.664142 1.622682 1.335203 1.487598
71 1.630914 1.786151 1.715802 1.624988 1.377709 1.720445
71 1.439063 1.218869 1.276222 1.356975 1.193814 1.245455
71 1.221406 1.104816 0.943612 1.024633 1.004517 1.185122
71 0.840331 0.992431 0.941591 1.013974 0.721233 1.027530
71 0.901237 0.722291 0.849806 0.940796 0.756770 0.920265
71 0.844821 0.918068 1.002674 1.045476 1.002445 1.105667
71 1.189978 1.092127 1.311676 1.344129 1.148556 1.151086
71 1.048957 1.266810 1.252753 1.408756 1.109344 1.266811
71 1.425937 1.205562 1.203430 1.114952 1.640675 1.192931
71 1.104784 1.140850 1.107085 1.116029 1.169229 0.968418
71 0.816946 0.678713 0.712486 0.650212 0.691856 0.570266
71 0.533731 0.464077 0.484702 0.459206 0.440849 0.390044
71 0.421533 0.358717 0.323144 0.253322 0.314809 0.332708
71 0.318983 0.417675 0.345410 0.400568 0.391527 0.370945
71 0.509485 0.744676 0.822557 0.967251 1.253643 1.365940
71 1.471006 1.482844 1.827516 1.698375 1.541680 1.599882
71 1.481461 1.484863 1.459702 1.359474 1.616592 1.415424
71 1.486803 1.264438 1.292153 1.156810 1.278755 1.115579
71 1.019604 0.887876 1.060592 0.939326 0.998422 0.950175
71 1.099296 1.060735 1.044721 0.920650 0.998175 1.082989
71 0.825103 0.900935 0.736241 1.010817 0.864188 0.991963
71 0.781926 1.146857 0.964313 1.082662 1.067831 1.048809
71 1.285437 0.938310 1.181690 1.279449 1.196417 1.214980
71 1.240417 1.125537 1.304957 1.373948 1.315558 1.267478
71 1.236336 1.264225 1.466599 1.031563 1.305209 1.247045
71 1.454793 1.247458 1.378191 0.903332 1.129721 1.026152
71 1.025148 0.663627 0.699910 0.651734 0.570252 0.633784
71 0.520811 0.624074 0.552709 0.525929 0.483400 0.385538
71 0.382756 0.384743 0.352093 0.345689 0.285977 0.289968
71 0.378116 0.349276 0.434932 0.449609 0.420799 0.411941
71 0.502054 0.674100 0.817863 1.237165 1.081119 1.216125
71 1.323630 1.457439 1.251371 1.521979 1.521396 1.630049
71 1.666848 1.384954 1.700007 1.809768 1.468757 1.687374
71 1.436773 1.624782 1.445247 1.050597 1.195127 1.264612
71 1.103360 1.058351 1.163196 0.939178 1.001752 1.031655
71 0.970042 1.003969 1.077502 1.023563 0.876577 0.822388
71 0.828981 0.885782 0.867542 0.813016 0.846166 0.780130
71 0.984198 0.968225 0.874021 1.029581 1.193205 0.996666
71 1.244665 1.087123 1.170115 1.184124 1.368183 1.248989
71 1.114679 1.114845 1.100720 1.083195 1.312623 1.178082
71 1.289494 1.209009 1.202333 1.240890 1.391466 1.409098
71 1.317054 1.117779 1.277236 1.225938 1.109746 0.937944
71 0.963797 0.827510 0.489345 0.689183 0.485175 0.602537
71 0.530763 0.580456 0.495092 0.437683 0.451049 0.477152
71 0.401050 0.359740 0.354269 0.312156 0.299822 0.360596
71 0.402351 0.403355 0.388562 0.461538 0.450055 0.457929
71 0.439196 0.645287 0.756271 0.998084 1.228807 1.365189
71 1.397229 1.745899 1.328619 1.742850 1.325385 1.679230
71 1.458095 1.719899 1.573115 1.571394 1.347258 1.362427
71 1.437932 1.434346 1.680783 1.273114 1.309337 0.965885
71 0.953712 1.024506 0.908548 1.161206 0.958978 1.137438
71 1.152744 1.010298 1.050180 0.975593 1.005055 0.969142
71 0.888872 0.930395 1.033612 0.950024 0.929322 0.931447
71 0.849053 0.872251 1.032336 0.886055 0.971350 1.214236
71 1.310565 0.936298 1.334060 1.147867 1.198199 1.215565
71 1.394345 1.076776 1.359301 1.183450 1.381174 1.503974
71 1.299946 1.349210 1.356101 1.199338 1.496513 1.509318
71 1.359038 1.249665 1.144573 1.075073 1.264867 1.139383
71 0.894270 0.668503 0.509595 0.577310 0.592163 0.644188
71 0.503940 0.544737 0.565159 0.486437 0.451274 0.374965
71 0.351901 0.379043 0.323126 0.309471 0.298582 0.338328
71 0.320879 0.367292 0.475847 0.369339 0.391110 0.402037
71 0.522239 0.701394 0.776326 0.970457 1.166522 1.423266
71 1.358469 1.490523 1.220449 1.399820 1.609431 1.762567
71 1.647212 1.407317 1.341243 1.560196 1.252079 1.613251
71 1.417742 1.137424 1.174426 1.155157 1.100671 0.973550
71 1.003787 0.989567 0.958724 1.124969 1.010483 0.900057
71 0.969959 0.917511 0.969999 1.066993 0.977764 1.135754
71 0.933833 0.804757 0.953033 0.982561 0.998475 0.819302
71 0.930775 1.082141 0.831527 0.975370 0.901856 0.975933
71 0.988630 1.263959 1.120504 1.071419 1.075727 1.246927
71 1.256971 1.455501 1.365002 1.119811 1.224413 1.442380
71 1.219259 1.526139 1.159667 1.378215 1.188042 1.223601
71 1.409429 1.224810 1.297614 1.201209 1.161506 0.909538
71 0.880058 0.827623 0.650568 0.752961 0.553366 0.548091
71 0.484808 0.407416 0.589846 0.470450 0.437290 0.422856
71 0.456795 0.328781 0.352160 0.292769 0.282100 0.335247
71 0.382613 0.360515 0.369246 0.354513 0.446851 0.402641
71 0.407543 0.726056 0.705109 1.093265 1.222011 1.390567
71 1.381210 1.605371 1.333155 1.719762 1.881173 1.760329
71 1.276874 1.425429 1.530342 1.608078 1.484002 1.385951
71 1.492603 1.513030 1.269802 1.336138 0.885249 1.036747
71 1.064662 1.010370 1.066488 1.113424 1.050667 0.937135
71 0.850723 1.062024 0.816182 1.045167 0.935732 0.815758
71 0.925853 0.885416 0.878417 0.879325 0.937757 1.005014
71 0.991639 1.070507 0.995586 1.192800 1.112044 1.017788
71 0.979672 1.146583 0.997503 1.058517 1.228690 1.154769
71 1.140926 1.278626 1.309448 1.280037 1.257265 1.414310
71 1.344516 1.271491 1.623785 1.328839 1.447161 1.216976
71 1.096835 1.142350 1.167839 1.089969 1.224423 0.986215
71 0.941532 0.790250 0.680109 0.649917 0.702843 0.521650
71 0.580414 0.465355 0.477019 0.480436 0.472737 0.495415
71 0.397997 0.333202 0.351186 0.294592 0.307160 0.313570
71 0.280530 0.399363 0.423335 0.438644 0.474900 0.376160
71 0.525825 0.662380 0.782791 1.054486 1.259958 1.186927
71 1.503053 1.406577 1.495703 1.335987 1.550683 1.584426
71 1.687977 1.581179 1.319091 1.665613 1.482212 1.529051
71 1.544816 1.548057 1.554960 1.236364 1.230019 1.020633
71 1.216776 0.936402 0.845812 1.094887 0.947830 1.077022
71 1.044491 0.842017 0.728032 0.873510 0.955277 0.811511
71 0.841251 0.756457 0.896620 0.894848 0.856675 1.048494
71 1.086215 1.027066 0.820023 0.913230 1.094794 1.008654
71 1.046420 1.224458 1.206034 1.326767 1.148495 1.398594
71 1.188642 1.475441 1.313759 1.194475 1.093461 1.263674
71 1.266690 1.412092 1.288340 1.247201 1.440015 1.260316
71 1.196740 1.311858 1.141221 1.222486 1.015610 0.975941
71 0.913696 0.764237 0.709975 0.700256 0.624636 0.592220
71 0.504814 0.562784 0.533478 0.528503 0.424543 0.423988
71 0.425341 0.341746 0.322294 0.364602 0.358553 0.356595
71 0.380884 0.341310 0.420502 0.387029 0.359840 0.405471
71 0.505783 0.601505 0.772029 1.094541 1.217293 1.383206
71 1.483345 1.444101 1.380708 1.674694 1.545202 1.292136
71 1.537189 1.408353 1.668595 1.613397 1.574534 1.360901
71 1.511798 1.398578 1.246719 1.188903 1.299397 1.089817
71 1.133402 1.172103 1.229210 1.179147 1.090082 0.848827
71 0.934390 0.950857 1.165315 0.912487 0.990533 0.933784
71 0.815839 0.919488 0.916759 0.775432 1.010059 0.728016
71 0.888913 1.066603 0.880674 1.062602 0.915593 1.066294
71 0.845485 1.028802 0.970378 1.125548 1.150172 1.146682
71 1.358779 1.169258 1.382470 1.519875 1.324765 1.191204
71 1.137586 1.208238 1.394544 1.323854 1.421783 1.388622
71 1.287800 1.299313 1.422630 1.309292 1.047383 1.096986
71 0.952727 0.884163 0.758679 0.584384 0.502819 0.597399
71 0.641632 0.478337 0.490596 0.430521 0.511716 0.331977
71 0.309454 0.377548 0.327035 0.291062 0.290967 0.334293
71 0.333793 0.338358 0.362905 0.437108 0.381324 0.368036
71 0.505109 0.668470 0.925611 1.036311 1.120835 1.415720
71 1.573606 1.542725 1.592864 1.666502 1.616363 1.657803
71 1.436494 1.399148 1.429229 1.631888 1.538820 1.609506
71 1.382441 1.200264 1.448792 1.243023 1.346009 1.212403
71 1.340748 1.038923 1.125106 1.101051 0.944487 0.982078
71 0.856848 0.850186 1.012657 1.058899 1.014553 0.955893
71 0.977672 0.833443 0.857616 0.952197 0.938981 0.900632
71 1.069501 0.846518 0.948132 0.997548 1.137862 1.076562
71 0.961236 1.181209 1.272202 1.259357 1.274299 0.999061
71 1.145133 1.344903 1.292865 1.375234 1.141136 1.294942
71 1.119328 1.046464 1.341279 1.413409 1.331930 1.285049
71 1.071555 1.365389 1.194715 1.371674 1.181860 0.798046
71 0.967954 0.683064 0.656937 0.631222 0.594356 0.587507
71 0.483929 0.458889 0.530030 0.479628 0.465778 0.336787
71 0.392915 0.331487 0.299393 0.333911 0.267130 0.282584
71 0.336676 0.397159 0.364639 0.450990 0.460790 0.389560
71 0.487746 0.586785 0.679330 1.044943 1.288031 1.623584
71 1.335290 1.755700 1.814777 1.656386 1.725750 1.758589
71 1.915856 1.656580 1.550252 1.400591 1.545798 1.607162
71 1.443200 1.249558 1.311580 1.229276 1.224486 0.953883
71 1.160587 1.125519 1.078054 1.010559 0.819406 0.997384
71 1.109986 0.919466 0.801073 0.829954 0.983653 0.958930
71 0.979766 0.880777 0.749368 0.814209 0.973696 0.932894
71 1.006114 1.014382 0.979504 1.008778 1.247326 1.120937
71 1.085855 1.174627 1.172992 0.919676 1.278010 1.453395
71 1.160184 1.469609 1.266607 1.345293 1.446448 1.209141
71 1.461524 1.142634 1.188736 1.226202 1.386061 1.245354
71 1.076893 1.213711 1.105893 1.230800 1.043010 1.005262
71 1.058765

[CURVES]
;ID         X-Value      Y-Value     

[CONTROLS]

[RULES]

[ENERGY]
GLOBAL EFFICIENCY      75.0000
GLOBAL PRICE           0.0000
DEMAND CHARGE          0.0000

[EMITTERS]
;ID        Flow coefficient

[QUALITY]

[SOURCES]
;Node      Type       Quality    Pattern   

[REACTIONS]
;Type           Pipe/Tank               Coefficient

 ORDER BULK 1
 ORDER TANK 1
 ORDER WALL 1
 GLOBAL BULK 0.0000    
 GLOBAL WALL 0.0000    
 LIMITING POTENTIAL 0.0000    
 ROUGHNESS CORRELATION 0.0000    

[MIXING]
;Tank ID             Model Fraction

[TIMES]
DURATION             672:00:00
HYDRAULIC TIMESTEP   00:15:00
QUALITY TIMESTEP     00:05:00
PATTERN TIMESTEP     00:15:00
PATTERN START        00:00:00
REPORT TIMESTEP      00:15:00
REPORT START         00:00:00
START CLOCKTIME      00:00:00 AM
RULE TIMESTEP        00:06:00
STATISTIC            NONE      

[REPORT]
 Status             	No
 Summary            	No
 Page               	0
 Nodes					ALL
 Links					ALL
 Flow					Yes
 Headloss				No
 Velocity 				No
 Demand 				Yes
 Head 					Yes
 Pressure 				Yes
 Quality 				No
 State 					Yes

[OPTIONS]
UNITS                CMH                 
HEADLOSS             H-W                 
SPECIFIC GRAVITY     1
VISCOSITY            1
TRIALS               40
ACCURACY             0.001
CHECKFREQ            2
MAXCHECK             10
UNBALANCED           CONTINUE 10
DEMAND MULTIPLIER    1
DEMAND MODEL         PDA
MINIMUM PRESSURE     0.00
REQUIRED PRESSURE    0.10
PRESSURE EXPONENT    0.5
EMITTER EXPONENT     0.5
QUALITY              NONE                