; Filename: D:/OneDrive/IHE_HI/015. Thesis/Github_repositories\Msc-Thesis/INP_FILES/Twoloops_Base_WNTR.inp
; WNTR: 0.4.2
; Created: 2023-03-07 09:38:51
[TITLE]

[JUNCTIONS]
;ID                      Elevation       Demand Pattern                 
 1                                160             100 61                         ;
 2                                150             100 61                         ;
 3                                150             270 61                         ;
 4                                155             120 61                         ;
 5                                160             200 61                         ;
 6                                165             330 61                         ;

[RESERVOIRS]
;ID                                   Head                  Pattern
 7                                210                            ;

[TANKS]
;ID                              Elevation           Init Level            Min Level            Max Level             Diameter           Min Volume Volume Curve         Overflow            

[PIPES]
;ID                   Node1                Node2                              Length             Diameter            Roughness           Minor Loss               Status
 1                    2                    1                               1000             200             130               0                 Open   ;
 2                    1                    3                               1000             150             130               0                 Open   ;
 3                    2                    4                               1000             450             130               0                 Open   ;
 4                    4                    3                               1000             150             130               0                 Open   ;
 5                    5                    3                               1000             150             130               0                 Open   ;
 6                    4                    6                               1000             400             130               0                 Open   ;
 7                    6                    5                               1000             250             130               0                 Open   ;
 8                    7                    2                               1000             450             130               0                 Open   ;

[PUMPS]
;ID                   Node1                Node2                Properties          

[VALVES]
;ID                   Node1                Node2                            Diameter Type              Setting           Minor Loss

[TAGS]
;type      name       tag       

[DEMANDS]
;ID        Demand     Pattern   

[STATUS]
;ID        Setting   

[PATTERNS]
;ID        Multipliers

61 0.995259 0.614406 0.529362 0.453781 0.333616 0.376545
61 0.528503 1.189102 1.590091 1.639417 1.512964 1.413433
61 1.150228 1.007301 1.026632 0.918018 0.980680 0.987691
61 1.120662 1.138505 1.100867 1.350982 1.367426 1.146564
61 1.022567 0.547643 0.501373 0.395508 0.327590 0.435265
61 0.504648 1.227228 1.514773 1.409844 1.468688 1.312195
61 1.181199 1.072143 0.976760 0.883676 0.843378 0.914799
61 0.987386 1.340456 1.260247 1.265830 1.202282 1.255979
61 0.812850 0.592341 0.473136 0.409286 0.290806 0.371665
61 0.499155 1.230840 1.606386 1.629037 1.442911 1.271706
61 1.055618 0.978427 0.951211 0.806781 0.909581 0.975893
61 0.992407 1.233320 1.229231 1.304052 1.356869 1.209287
61 0.961528 0.555546 0.512070 0.383565 0.284326 0.386108
61 0.490653 1.204044 1.488146 1.686479 1.541910 1.180173
61 1.198225 1.113753 1.070727 0.890284 0.842179 1.063267
61 1.073390 1.288016 1.316245 1.376178 1.327797 1.250873
61 0.900567 0.664291 0.503807 0.409648 0.333897 0.367654
61 0.461885 1.269797 1.487380 1.786588 1.462774 1.241699
61 1.226914 1.088831 1.112054 0.948926 0.853494 1.114604
61 1.082312 1.257777 1.373886 1.287909 1.347898 1.266399
61 0.920327 0.560422 0.508947 0.431833 0.287498 0.396409
61 0.486945 1.333147 1.664540 1.639116 1.430708 1.342061
61 1.055494 1.001910 0.961849 0.936527 0.931136 0.987502
61 1.126136 1.121300 1.183682 1.334273 1.313001 1.245722
61 1.028690 0.634001 0.472615 0.426808 0.276314 0.388922
61 0.497953 1.323361 1.528504 1.520662 1.491139 1.248249
61 1.174358 0.935204 0.931152 0.876358 0.873106 1.115772
61 1.162662 1.206304 1.204416 1.365860 1.221983 1.088776
61 0.995259

[CURVES]
;ID         X-Value      Y-Value     

[CONTROLS]

[RULES]

[ENERGY]
GLOBAL EFFICIENCY      75.0000
GLOBAL PRICE           0.0000
DEMAND CHARGE          0.0000

[EMITTERS]
;ID        Flow coefficient

[QUALITY]

[SOURCES]
;Node      Type       Quality    Pattern   

[REACTIONS]
;Type           Pipe/Tank               Coefficient

 ORDER BULK 1
 ORDER TANK 1
 ORDER WALL 1
 GLOBAL BULK 0.0000    
 GLOBAL WALL 0.0000    
 LIMITING POTENTIAL 0.0000    
 ROUGHNESS CORRELATION 0.0000    

[MIXING]
;Tank ID             Model Fraction

[TIMES]
DURATION             168:00:00
HYDRAULIC TIMESTEP   01:00:00
QUALITY TIMESTEP     00:05:00
PATTERN TIMESTEP     01:00:00
PATTERN START        00:00:00
REPORT TIMESTEP      01:00:00
REPORT START         00:00:00
START CLOCKTIME      00:00:00 AM
RULE TIMESTEP        00:06:00
STATISTIC            NONE      

[REPORT]
 Status             	No
 Summary            	No
 Page               	0
 Nodes					ALL
 Links					ALL
 Flow					Yes
 Headloss				No
 Velocity 				No
 Demand 				Yes
 Head 					Yes
 Pressure 				Yes
 Quality 				No
 State 					Yes

[OPTIONS]
UNITS                CMH                 
HEADLOSS             H-W                 
SPECIFIC GRAVITY     1
VISCOSITY            1
TRIALS               40
ACCURACY             0.001
CHECKFREQ            2
MAXCHECK             10
UNBALANCED           CONTINUE 10
DEMAND MULTIPLIER    1
DEMAND MODEL         PDA
MINIMUM PRESSURE     0.00
REQUIRED PRESSURE    0.10
PRESSURE EXPONENT    0.5
EMITTER EXPONENT     0.5
QUALITY              NONE                
DIFFUSIVITY          1
TOLERANCE            0.01

[COORDINATES]
;Node      X-Coord    Y-Coord   
1                4000.000000000       7000.000000000
2                5000.000000000       7000.000000000
3                4000.000000000       6000.000000000
4                5000.000000000       6000.000000000
5                4000.000000000       5000.000000000
6                5000.000000000       5000.000000000
7                6000.000000000       7000.000000000

[VERTICES]
;Link      X-Coord    Y-Coord   

[LABELS]

[BACKDROP]
DIMENSIONS    2900.000    4900.000    5100.000    7100.000
UNITS    METERS
OFFSET    0.00    0.00

[END]
