; Filename: D:/OneDrive/IHE_HI/015. Thesis/Github_repositories\Msc-Thesis/INP_FILES/Twoloops_Base_WNTR.inp
; WNTR: 0.4.2
; Created: 2023-03-07 09:41:00
[TITLE]

[JUNCTIONS]
;ID                      Elevation       Demand Pattern                 
 1                                160             100 75                         ;
 2                                150             100 75                         ;
 3                                150             270 75                         ;
 4                                155             120 75                         ;
 5                                160             200 75                         ;
 6                                165             330 75                         ;

[RESERVOIRS]
;ID                                   Head                  Pattern
 7                                210                            ;

[TANKS]
;ID                              Elevation           Init Level            Min Level            Max Level             Diameter           Min Volume Volume Curve         Overflow            

[PIPES]
;ID                   Node1                Node2                              Length             Diameter            Roughness           Minor Loss               Status
 1                    2                    1                               1000             200             130               0                 Open   ;
 2                    1                    3                               1000             150             130               0                 Open   ;
 3                    2                    4                               1000             450             130               0                 Open   ;
 4                    4                    3                               1000             150             130               0                 Open   ;
 5                    5                    3                               1000             150             130               0                 Open   ;
 6                    4                    6                               1000             400             130               0                 Open   ;
 7                    6                    5                               1000             250             130               0                 Open   ;
 8                    7                    2                               1000             450             130               0                 Open   ;

[PUMPS]
;ID                   Node1                Node2                Properties          

[VALVES]
;ID                   Node1                Node2                            Diameter Type              Setting           Minor Loss

[TAGS]
;type      name       tag       

[DEMANDS]
;ID        Demand     Pattern   

[STATUS]
;ID        Setting   

[PATTERNS]
;ID        Multipliers

75 1.058765 0.739380 0.658724 0.659868 0.593378 0.413056
75 0.438004 0.324760 0.296903 0.362499 0.405762 0.460968
75 0.538052 0.826972 1.253264 1.515882 1.839053 1.594339
75 1.650091 1.426424 1.117052 1.500819 1.412377 1.104372
75 1.349673 0.882028 1.004576 0.984755 1.153278 1.093838
75 0.913945 0.914984 0.820099 0.757592 0.965209 1.068413
75 1.235332 1.285379 1.153521 1.220331 1.163688 1.121056
75 1.078185 1.556883 1.233745 1.214286 1.049665 1.164058
75 0.754749 0.695807 0.546272 0.559925 0.474460 0.403746
75 0.398873 0.343875 0.301996 0.358734 0.374627 0.387844
75 0.466377 0.787655 1.102422 1.213700 1.628388 1.562334
75 1.339168 1.631808 1.363905 1.416059 1.394782 1.208291
75 1.225334 0.904688 1.040234 0.934816 0.912920 0.898499
75 0.871960 0.886595 0.795137 1.029826 1.046566 0.890358
75 1.263708 1.364953 1.341454 1.235731 1.160802 1.444369
75 1.247587 1.462000 1.327076 1.393943 1.242764 1.156398
75 0.900945 0.837895 0.607615 0.560738 0.594158 0.396095
75 0.349181 0.361717 0.264806 0.415879 0.383455 0.372361
75 0.596147 0.937994 1.424107 1.599845 1.462204 1.938641
75 1.557119 1.684785 1.642088 1.386904 1.379830 1.302916
75 1.141407 0.918666 1.029824 1.136647 0.930543 0.939434
75 0.860836 1.044682 0.960507 0.983217 0.923008 1.108693
75 1.025823 1.151068 1.123698 1.343493 1.374957 1.279379
75 1.351481 1.160349 1.106137 1.325717 1.220001 1.148671
75 1.114483 0.778078 0.545231 0.599283 0.434205 0.436664
75 0.397270 0.386248 0.277657 0.319425 0.396062 0.375741
75 0.556332 0.728797 1.062304 1.402708 1.520315 1.941810
75 1.751907 1.573286 1.316185 1.527690 1.169972 1.008629
75 1.230683 1.064852 1.092086 1.035525 1.085683 0.891616
75 0.806918 0.941735 0.827693 0.879580 0.954447 1.053804
75 1.061061 0.989652 1.122766 0.978585 1.381280 1.097271
75 1.156430 1.309543 1.203857 1.465868 1.044857 1.108926
75 0.896465 0.627888 0.631397 0.529821 0.538590 0.495495
75 0.486529 0.373823 0.288925 0.339867 0.443986 0.428812
75 0.532007 0.684921 1.197081 1.358670 1.644788 1.611757
75 1.745629 1.609106 1.617949 1.343035 1.177222 1.143990
75 1.098128 1.071273 1.225931 0.999298 0.904405 0.920708
75 0.858276 0.924093 0.761328 0.950699 1.015651 1.076390
75 1.034295 1.120116 1.029113 1.196294 1.229428 1.360956
75 1.149696 1.404517 1.494283 1.007047 1.251151 1.153194
75 0.842631 0.682688 0.592027 0.523015 0.484549 0.381069
75 0.446093 0.365351 0.275599 0.297141 0.420843 0.379270
75 0.507098 0.790941 1.282985 1.568849 1.483904 1.402559
75 1.346730 1.654828 1.321671 1.337344 1.222479 1.186634
75 0.887009 1.051624 1.052389 1.012413 0.968911 0.962994
75 0.935914 0.637199 1.076032 0.981576 0.934759 1.010838
75 1.154312 1.134094 0.956318 1.518162 1.285630 1.439891
75 1.210034 1.502898 1.337225 1.347236 1.074570 1.210896
75 0.962084 0.803484 0.562315 0.513138 0.615196 0.409268
75 0.394562 0.367240 0.302932 0.368500 0.384022 0.417334
75 0.434674 0.952506 1.185820 1.367156 1.706621 1.552741
75 1.386519 1.349593 1.604066 1.386261 1.282619 1.321470
75 0.976049 0.956723 0.961512 1.013008 0.995783 0.926344
75 0.894454 0.872183 0.835236 0.867918 1.027452 0.958244
75 0.972691 1.111583 1.181080 1.542352 1.208389 1.429841
75 1.397134 1.147857 1.400523 1.119575 0.880899 1.145570
75 0.741970 0.742990 0.558959 0.628529 0.553425 0.437039
75 0.372486 0.289716 0.286772 0.338440 0.385412 0.408748
75 0.528926 0.845599 1.108303 1.256019 1.818325 1.515510
75 1.495633 1.478345 1.223540 1.341407 1.237645 1.266908
75 1.176830 1.032528 1.093185 1.037656 0.998432 0.969052
75 0.882841 0.846832 0.875904 0.838157 1.028044 0.947492
75 1.192579 1.118792 1.205939 1.320515 1.383631 1.101378
75 1.273103 1.417412 1.079246 1.319099 0.929332 0.969643
75 0.903477 0.593151 0.540869 0.459726 0.582407 0.465314
75 0.422692 0.322408 0.289397 0.291916 0.388327 0.371796
75 0.542896 0.910263 1.375989 1.591998 1.504215 1.446095
75 1.722666 1.615200 1.234719 1.458819 1.405888 1.199934
75 1.079644 0.948778 0.855347 1.083852 0.969089 0.931439
75 1.055945 0.941992 0.933374 0.958144 1.151999 1.232860
75 1.202246 1.214221 0.948648 1.273941 1.283086 1.318871
75 1.422596 0.945836 1.225989 1.304193 1.143979 0.927045
75 0.978207 0.730615 0.541734 0.556039 0.541079 0.458038
75 0.432023 0.332331 0.288143 0.307831 0.396563 0.410261
75 0.543792 0.807626 1.254890 1.325432 1.474779 1.609765
75 1.431259 1.687560 1.569470 1.448058 1.344058 1.433996
75 1.048425 0.804920 1.019930 0.998461 0.948248 0.860353
75 0.860473 0.897631 0.854746 1.172633 0.903950 0.968532
75 0.848252 1.176271 0.958031 1.190489 1.264163 1.213863
75 1.526053 1.432291 1.471488 1.157858 1.335431 1.133654
75 0.969427 0.784118 0.545474 0.516195 0.543130 0.336222
75 0.460533 0.347990 0.298629 0.355880 0.358803 0.388359
75 0.555014 0.923084 1.523547 1.456090 1.494632 1.544030
75 1.437113 1.547489 1.557410 1.403917 1.442525 1.164965
75 1.061780 0.972144 0.836737 0.846208 0.882084 1.077822
75 0.980573 1.002866 0.780101 0.758742 0.933994 1.070461
75 1.154856 1.267662 1.234114 1.477665 1.271061 1.187293
75 1.081442 1.186936 1.331475 1.157058 1.312409 1.232625
75 0.686737 0.772360 0.465624 0.560712 0.561244 0.460764
75 0.348812 0.310446 0.292151 0.341856 0.391884 0.398020
75 0.510674 0.718287 1.170958 1.689653 1.538457 1.555489
75 1.772512 1.160493 1.677207 1.319722 1.321311 1.204395
75 1.203671 1.004519 0.932197 1.133783 0.763583 0.955644
75 0.778687 0.814500 1.081013 0.940510 1.019507 0.864551
75 1.019805 1.169969 1.242571 1.336000 1.301122 1.375453
75 1.358992 1.064378 1.304811 1.367435 1.270786 1.040783
75 0.827494 0.631427 0.592137 0.600149 0.402410 0.427586
75 0.354408 0.355635 0.283371 0.331814 0.391322 0.420366
75 0.480381 0.568152 1.265197 1.531338 1.564873 1.451281
75 1.656285 1.618778 1.429495 1.378209 1.179080 1.171601
75 0.929453 1.075212 0.905563 1.027434 0.859404 0.897430
75 0.890056 0.735229 0.910363 0.908904 0.825764 0.914869
75 1.166563 1.250173 1.184171 1.309306 1.329100 1.349664
75 1.467178 1.106423 1.387940 1.221406 1.173089 1.047437
75 0.866237 0.623758 0.611000 0.629143 0.497193 0.457732
75 0.372508 0.325877 0.313985 0.335310 0.381848 0.418671
75 0.454100 0.837661 1.298439 1.666429 1.585539 1.850342
75 1.765506 1.404259 1.317309 1.365779 1.433762 1.184282
75 1.033928 1.192352 1.028690 0.770658 1.031716 1.003301
75 0.920305 0.921292 0.893945 0.820171 0.962930 0.952490
75 0.997398 1.002489 1.254299 1.270691 1.241739 1.221753
75 1.296955 1.443338 1.039452 1.317778 1.134515 0.876531
75 0.724887 0.646039 0.613171 0.560257 0.453051 0.504354
75 0.456919 0.342812 0.282258 0.387354 0.430216 0.437350
75 0.467177 0.585439 1.454015 1.230629 1.594277 2.015256
75 1.652892 1.707679 1.274641 1.158314 1.230749 1.323021
75 1.061913 0.950121 1.019797 1.112116 0.855506 0.838254
75 0.829020 0.978151 0.921134 1.146152 1.093645 1.048274
75 1.239159 1.171683 1.115409 1.343938 1.209478 1.268652
75 1.472612 1.289552 1.195592 1.210951 1.322615 1.020403
75 0.865182 0.674653 0.611036 0.518288 0.419908 0.417181
75 0.362688 0.370749 0.324380 0.368650 0.379786 0.369611
75 0.474624 0.731089 1.499664 1.137560 1.690241 1.418643
75 1.583305 1.405539 1.323356 1.248117 1.528148 1.177041
75 1.015773 1.089504 1.001035 1.075797 0.817574 0.982659
75 0.969543 0.735150 0.940338 1.104965 0.998514 1.138374
75 1.173763 1.066235 1.204772 1.061186 1.241331 1.341310
75 1.394003 1.305953 1.393598 1.129858 1.187796 1.082165
75 1.066463 0.695706 0.570059 0.540219 0.454044 0.466619
75 0.385398 0.270682 0.298242 0.337145 0.334703 0.399740
75 0.574468 0.859623 1.273431 1.270145 1.676304 1.651897
75 1.684647 1.625546 1.296033 1.402909 1.201477 1.186930
75 1.001286 1.167604 0.914103 0.913327 1.007459 0.850981
75 0.861780 0.808470 1.027005 1.018960 0.994253 1.010811
75 1.203501 1.193909 1.259766 1.255076 1.080530 1.291900
75 1.230776 1.386781 1.431540 1.186363 1.256206 1.267571
75 0.839906 0.830505 0.548845 0.540306 0.499443 0.458322
75 0.366493 0.310256 0.279968 0.359587 0.413201 0.492023
75 0.568549 0.775375 1.238984 1.613204 1.604896 1.616398
75 1.608252 1.694895 1.372752 1.362863 1.361156 1.230058
75 1.126354 0.993970 1.097254 1.217681 1.040642 0.935281
75 0.968017 0.834111 0.832528 0.947822 0.741720 0.930574
75 1.061724 0.992126 1.076083 1.203413 1.086415 1.253538
75 1.230415 1.306056 1.450044 1.291824 1.202527 1.090824
75 0.920465 0.638649 0.593113 0.555712 0.431462 0.497424
75 0.443255 0.308931 0.292760 0.317623 0.427975 0.359734
75 0.488876 0.746855 1.206115 1.203732 1.812234 1.470721
75 1.609583 1.526486 1.385683 1.283676 1.421732 1.130201
75 1.129829 0.949413 0.935282 1.050931 1.093041 0.936984
75 0.772027 1.057792 0.822911 0.799086 1.259442 1.009463
75 0.939209 1.068997 1.244105 1.282321 1.189275 1.544751
75 1.232195 1.148412 1.424890 1.438698 1.101901 0.928725
75 0.992739 0.565381 0.526403 0.591220 0.497232 0.445712
75 0.414113 0.324713 0.261039 0.392635 0.453001 0.410705
75 0.502257 1.008186 1.166828 1.428856 1.658317 1.867226
75 1.854843 1.519304 1.546250 1.214605 1.259443 1.092666
75 0.989249 1.205701 0.920771 0.950190 1.036585 1.077479
75 0.943300 1.124920 0.893280 0.969164 1.027560 1.202928
75 1.155796 1.134079 1.086301 1.289132 1.482175 1.252975
75 1.368763 1.334814 1.412258 1.167721 1.481598 0.941922
75 0.867100 0.777624 0.617804 0.583810 0.475195 0.454371
75 0.400489 0.381497 0.320713 0.375942 0.373683 0.441434
75 0.511279 0.930529 1.441687 1.421933 1.534991 1.487090
75 1.577027 1.500049 1.553926 1.388375 1.252992 1.319900
75 0.996833 1.076842 0.959406 1.076232 1.138526 0.924798
75 0.939693 0.897406 0.828052 0.967471 1.028912 1.095398
75 1.078176 1.158223 1.062287 1.213308 1.372275 1.423205
75 1.245099 1.316388 1.329647 1.295504 1.264893 0.883715
75 0.895561 0.727925 0.539980 0.629308 0.508078 0.529367
75 0.368379 0.299832 0.306728 0.289750 0.408599 0.406354
75 0.550783 0.874308 1.149903 1.305938 1.873969 1.498798
75 1.432716 1.390434 1.667596 1.335641 1.202018 1.209330
75 1.077236 0.962150 1.075399 1.110448 1.098532 1.026846
75 0.936236 0.725073 1.050233 0.973252 1.060816 1.169256
75 1.257669 1.195423 1.252266 1.182968 1.304302 1.194991
75 1.206408 1.186337 1.279717 1.403144 1.580517 1.100550
75 0.778643 0.800863 0.581953 0.503457 0.510492 0.401000
75 0.408899 0.326837 0.302951 0.361483 0.402700 0.403099
75 0.514216 0.850971 1.076222 1.257164 1.590138 1.394523
75 1.614005 1.706041 1.591067 1.261081 1.188166 1.232068
75 1.055857 0.999456 1.059691 0.904461 0.959877 0.877400
75 0.806118 0.806079 0.960972 0.949618 0.912084 1.027654
75 0.919731 1.063274 1.457949 1.247016 1.395116 1.298039
75 1.345262 1.389152 1.156400 1.265989 1.389464 0.994162
75 0.849020 0.689057 0.616141 0.567365 0.563371 0.480662
75 0.397518 0.371272 0.321123 0.296122 0.501055 0.473671
75 0.491589 0.847908 1.358923 1.441673 1.716856 1.807530
75 1.437628 1.465690 1.638211 1.473658 1.420094 1.177091
75 1.068209 0.825852 0.885400 1.008262 1.082456 1.004363
75 0.888458 0.857683 0.919546 0.952112 1.140455 1.067370
75 0.937063 1.001400 1.382251 1.110997 1.399385 1.271530
75 1.277931 1.285273 1.458780 1.245428 1.196002 0.914743
75 0.918602 0.748685 0.614349 0.614424 0.502759 0.471482
75 0.465940 0.278639 0.286325 0.397861 0.437445 0.429743
75 0.541633 0.843753 1.395792 1.522349 1.638379 1.653608
75 1.630858 1.379179 1.615601 1.390365 1.536849 1.183881
75 1.146301 1.057592 0.937444 1.103104 1.190506 0.952295
75 0.872957 0.850342 0.729687 0.927924 1.025100 1.162922
75 1.205605 1.099626 1.166781 1.399801 1.277450 1.239955
75 1.481027 1.437918 1.302443 1.194513 0.958574 1.143775
75 0.819327 0.571395 0.695089 0.573998 0.443050 0.402201
75 0.434838 0.300800 0.338884 0.369667 0.421464 0.418728
75 0.509573 0.888972 1.145510 1.479542 1.720311 1.719373
75 1.408802 1.481586 1.537921 1.351262 1.530706 1.146006
75 1.082156 1.111555 1.033053 0.988960 0.924351 0.982460
75 0.993519 0.923882 0.829963 1.108800 0.855342 0.885472
75 1.205661 1.173329 1.134060 1.120131 1.601704 1.321894
75 1.369446 1.344159 1.356525 1.338505 1.287891 1.039555
75 0.873752 0.587157 0.553182 0.553683 0.552251 0.485219
75 0.386372 0.288097 0.216679 0.388305 0.376431 0.384394
75 0.506579 0.702192 1.158026 1.763764 1.680862 1.686210
75 1.346801 1.909551 1.286581 1.679547 1.025043 1.360552
75 1.277986 0.947048 1.042258 1.058481 0.918621 0.815501
75 0.781405 0.929341 0.892340 0.891412 1.096677 1.105412
75 1.016899 1.009588 1.262791 1.190724 1.312897 1.512554
75 1.365303 1.190415 1.320886 1.148940 1.393023 1.019427
75 0.918654 0.732809 0.609555 0.433489 0.427679 0.437087
75 0.412777 0.325207 0.271286 0.301249 0.383938 0.383588
75 0.525642 0.790370 1.272325 1.379703 1.559047 1.571081
75 1.474821 1.657127 1.377961 1.335255 1.290494 1.038140
75 1.064257 0.958722 0.961185 0.997525 0.920009 0.932716
75 1.017780 0.879369 1.003074 0.977457 1.077416 0.970495
75 1.111540 1.162781 1.126485 1.154830 1.106265 1.502080
75 1.173588 1.478125 1.239226 1.160388 1.274702 1.011908
75 1.058765

[CURVES]
;ID         X-Value      Y-Value     

[CONTROLS]

[RULES]

[ENERGY]
GLOBAL EFFICIENCY      75.0000
GLOBAL PRICE           0.0000
DEMAND CHARGE          0.0000

[EMITTERS]
;ID        Flow coefficient

[QUALITY]

[SOURCES]
;Node      Type       Quality    Pattern   

[REACTIONS]
;Type           Pipe/Tank               Coefficient

 ORDER BULK 1
 ORDER TANK 1
 ORDER WALL 1
 GLOBAL BULK 0.0000    
 GLOBAL WALL 0.0000    
 LIMITING POTENTIAL 0.0000    
 ROUGHNESS CORRELATION 0.0000    

[MIXING]
;Tank ID             Model Fraction

[TIMES]
DURATION             672:00:00
HYDRAULIC TIMESTEP   00:30:00
QUALITY TIMESTEP     00:05:00
PATTERN TIMESTEP     00:30:00
PATTERN START        00:00:00
REPORT TIMESTEP      00:30:00
REPORT START         00:00:00
START CLOCKTIME      00:00:00 AM
RULE TIMESTEP        00:06:00
STATISTIC            NONE      

[REPORT]
 Status             	No
 Summary            	No
 Page               	0
 Nodes					ALL
 Links					ALL
 Flow					Yes
 Headloss				No
 Velocity 				No
 Demand 				Yes
 Head 					Yes
 Pressure 				Yes
 Quality 				No
 State 					Yes

[OPTIONS]
UNITS                CMH                 
HEADLOSS             H-W                 
SPECIFIC GRAVITY     1
VISCOSITY            1
TRIALS               40
ACCURACY             0.001
CHECKFREQ            2
MAXCHECK             10
UNBALANCED           CONTINUE 10
DEMAND MULTIPLIER    1
DEMAND MODEL         PDA
MINIMUM PRESSURE     0.00
REQUIRED PRESSURE    0.10
PRESSURE EXPONENT    0.5
EMITTER EXPONENT     0.5
QUALITY              NONE                
DIFFUSIVITY          1
TOLERANCE            0.01

[COORDINATES]
;Node      X-Coord    Y-Coord   
1                4000.000000000       7000.000000000
2                5000.000000000       7000.000000000
3                4000.000000000       6000.000000000
4                5000.000000000       6000.000000000
5                4000.000000000       5000.000000000
6                5000.000000000       5000.000000000
7                6000.000000000       7000.000000000

[VERTICES]
;Link      X-Coord    Y-Coord   

[LABELS]

[BACKDROP]
DIMENSIONS    2900.000    4900.000    5100.000    7100.000
UNITS    METERS
OFFSET    0.00    0.00

[END]
