; Filename: D:/OneDrive/IHE_HI/015. Thesis/Github_repositories\Msc-Thesis/INP_FILES/Twoloops_Base_WNTR.inp
; WNTR: 0.4.2
; Created: 2023-03-27 08:56:49
[TITLE]

[JUNCTIONS]
;ID                      Elevation       Demand Pattern                 
 1                                160             100 2                          ;
 2                                150             100 2                          ;
 3                                150             270 2                          ;
 4                                155             120 2                          ;
 5                                160             200 2                          ;
 6                                165             330 2                          ;

[RESERVOIRS]
;ID                                   Head                  Pattern
 7                                210                            ;

[TANKS]
;ID                              Elevation           Init Level            Min Level            Max Level             Diameter           Min Volume Volume Curve         Overflow            

[PIPES]
;ID                   Node1                Node2                              Length             Diameter            Roughness           Minor Loss               Status
 1                    2                    1                               1000             200             130               0                 Open   ;
 2                    1                    3                               1000             150             130               0                 Open   ;
 3                    2                    4                               1000             450             130               0                 Open   ;
 4                    4                    3                               1000             150             130               0                 Open   ;
 5                    5                    3                               1000             150             130               0                 Open   ;
 6                    4                    6                               1000             400             130               0                 Open   ;
 7                    6                    5                               1000             250             130               0                 Open   ;
 8                    7                    2                               1000             450             130               0                 Open   ;

[PUMPS]
;ID                   Node1                Node2                Properties          

[VALVES]
;ID                   Node1                Node2                            Diameter Type              Setting           Minor Loss

[TAGS]
;type      name       tag       

[DEMANDS]
;ID        Demand     Pattern   

[STATUS]
;ID        Setting   

[PATTERNS]
;ID        Multipliers

2 0.931753 0.868766 0.842738 0.829523 0.792415 0.721867
2 0.724441 0.685695 0.665286 0.652774 0.631847 0.632122
2 0.609132 0.588561 0.580632 0.568813 0.572161 0.544701
2 0.542444 0.522714 0.498199 0.525339 0.521188 0.498674
2 0.522698 0.479294 0.487535 0.478466 0.487640 0.479345
2 0.459214 0.452897 0.432897 0.414337 0.418639 0.412396
2 0.409842 0.397592 0.373208 0.361701 0.344518 0.330745
2 0.318498 0.332707 0.308923 0.303047 0.293828 0.304025
2 0.290317 0.302151 0.303812 0.319712 0.323345 0.329194
2 0.348006 0.362427 0.370613 0.382345 0.383719 0.392590
2 0.394620 0.399136 0.395669 0.387585 0.402053 0.397444
2 0.389321 0.410627 0.407294 0.427661 0.451435 0.470119
2 0.511394 0.525489 0.589289 0.627620 0.680945 0.744867
2 0.811940 0.883294 0.926274 1.032484 1.088830 1.105998
2 1.235718 1.302348 1.336057 1.346787 1.364124 1.462575
2 1.455105 1.534400 1.531370 1.579002 1.580270 1.608548
2 1.600336 1.668351 1.622924 1.637309 1.688670 1.584559
2 1.586373 1.656987 1.583872 1.680221 1.598665 1.582121
2 1.661534 1.640997 1.646807 1.609686 1.547174 1.627053
2 1.551272 1.576444 1.572061 1.528657 1.541897 1.539971
2 1.511293 1.454192 1.481590 1.496528 1.422096 1.421459
2 1.396481 1.442727 1.391877 1.366302 1.316321 1.332675
2 1.282467 1.282444 1.247331 1.262208 1.241721 1.205022
2 1.202353 1.150429 1.125230 1.154051 1.132482 1.128185
2 1.152429 1.107187 1.054458 1.086000 1.023647 1.031643
2 1.030730 1.059104 1.001784 0.994230 1.004106 0.989123
2 1.022533 0.977241 0.975749 0.990564 0.990541 1.040666
2 1.022595 1.006643 0.981134 1.022983 0.985155 0.972350
2 1.023761 1.001360 1.006878 0.987351 0.989249 0.950825
2 0.933977 0.956700 0.918996 0.911710 0.907106 0.907529
2 0.893628 0.869425 0.877801 0.846287 0.894284 0.853653
2 0.862170 0.883316 0.871049 0.914160 0.867334 0.899551
2 0.899293 0.884826 0.922226 0.916812 0.942116 0.951489
2 0.985596 0.979159 0.955715 0.967462 1.003047 1.003768
2 1.012803 0.976416 1.017430 1.011488 1.041009 1.041601
2 1.071115 1.066898 1.085081 1.066266 1.063779 1.083196
2 1.099626 1.116216 1.166037 1.122513 1.109722 1.131443
2 1.136777 1.166776 1.128182 1.174145 1.185200 1.196134
2 1.185664 1.203933 1.184835 1.217378 1.225921 1.259435
2 1.229274 1.287037 1.313632 1.229931 1.300728 1.312964
2 1.283427 1.293012 1.302162 1.299155 1.299356 1.263453
2 1.336708 1.333741 1.283071 1.264741 1.315262 1.285684
2 1.303691 1.291512 1.318014 1.318620 1.282364 1.265994
2 1.261503 1.319234 1.272639 1.290358 1.287478 1.300497
2 1.249657 1.302219 1.307327 1.291583 1.275887 1.279912
2 1.280053 1.191364 1.300498 1.250252 1.212332 1.205352
2 1.211850 1.181012 1.118726 1.194283 1.123748 1.126497
2 1.065133 1.086924 1.033125 1.010352 0.947117 0.957262
2 0.912417 0.884309 0.816176 0.786302 0.799082 0.720648
2 0.708999 0.703415 0.667965 0.655006 0.624999 0.618803
2 0.584322 0.606603 0.574163 0.557356 0.562964 0.541906
2 0.524683 0.517475 0.532290 0.516905 0.510960 0.517098
2 0.488732 0.486439 0.483339 0.481170 0.472737 0.462989
2 0.457231 0.448532 0.434380 0.424414 0.423887 0.403785
2 0.390741 0.385830 0.374935 0.380325 0.346938 0.346835
2 0.334678 0.312599 0.316931 0.298486 0.285351 0.303001
2 0.289465 0.306179 0.305120 0.327787 0.333664 0.334098
2 0.343412 0.350623 0.366857 0.377915 0.385815 0.396698
2 0.404628 0.404839 0.396063 0.389902 0.411565 0.395139
2 0.397192 0.402621 0.399530 0.423133 0.440679 0.474727
2 0.506985 0.538836 0.595480 0.640662 0.692798 0.756016
2 0.813916 0.875335 0.943296 0.991330 1.084834 1.118393
2 1.220199 1.248510 1.306576 1.365000 1.411911 1.387374
2 1.460864 1.524148 1.473225 1.560746 1.498303 1.553697
2 1.601236 1.557443 1.586908 1.576438 1.681021 1.633803
2 1.646202 1.618234 1.610462 1.565062 1.602592 1.581671
2 1.627454 1.630177 1.634076 1.607995 1.555441 1.532208
2 1.583546 1.562599 1.488261 1.544313 1.548003 1.513864
2 1.494448 1.462868 1.430196 1.481188 1.433213 1.419069
2 1.457560 1.410317 1.383596 1.359108 1.377549 1.363800
2 1.324167 1.296552 1.210471 1.248441 1.224371 1.212337
2 1.215404 1.111696 1.146616 1.150173 1.118180 1.082467
2 1.119117 1.092678 1.053206 1.068957 1.068590 1.041366
2 1.048665 1.025617 1.008893 0.987497 1.004358 1.006320
2 1.017517 0.996514 1.007804 0.980036 0.984847 0.999786
2 0.982372 1.021369 1.015101 1.011609 1.012078 1.043905
2 0.990623 0.951241 0.992610 0.980104 0.962515 0.944509
2 0.945327 0.947257 0.924611 0.969064 0.897861 0.892821
2 0.858805 0.898506 0.853386 0.876115 0.878370 0.869392
2 0.912304 0.899945 0.907452 0.871143 0.910453 0.903648
2 0.913885 0.924645 0.896086 0.912161 0.943800 0.886355
2 0.973316 0.964217 0.961944 0.976403 0.961245 0.983849
2 1.022006 1.035243 1.072816 1.025124 1.021578 1.032917
2 1.030546 1.058521 1.076458 1.075569 1.108033 1.087037
2 1.092356 1.094937 1.079198 1.088236 1.104672 1.168982
2 1.167960 1.187427 1.133038 1.126491 1.165905 1.194792
2 1.211969 1.235044 1.226504 1.272362 1.233859 1.226232
2 1.216060 1.244707 1.281684 1.260244 1.313896 1.332018
2 1.238391 1.325891 1.247150 1.317433 1.339465 1.308969
2 1.273155 1.290265 1.297463 1.298205 1.296414 1.297804
2 1.305550 1.268395 1.293741 1.340040 1.291237 1.290460
2 1.330839 1.236614 1.334437 1.287097 1.307290 1.304373
2 1.324504 1.290378 1.276227 1.322769 1.223164 1.277943
2 1.235683 1.242094 1.301883 1.239467 1.233152 1.171564
2 1.182503 1.188414 1.174358 1.161077 1.126432 1.115608
2 1.089885 1.015931 1.028002 1.013527 0.978752 0.927822
2 0.885499 0.842592 0.824392 0.811932 0.734064 0.726540
2 0.694725 0.698574 0.659271 0.641363 0.627299 0.619728
2 0.595291 0.551363 0.581777 0.570004 0.553121 0.535087
2 0.542861 0.535832 0.520070 0.516312 0.502799 0.504379
2 0.484496 0.497773 0.477889 0.482551 0.459831 0.460165
2 0.456784 0.434567 0.441738 0.428157 0.406882 0.400395
2 0.404841 0.395209 0.375129 0.366847 0.353473 0.342657
2 0.338232 0.310562 0.316327 0.303389 0.300028 0.297561
2 0.297749 0.296001 0.310487 0.327859 0.326316 0.337146
2 0.343416 0.358504 0.373571 0.377232 0.385122 0.398649
2 0.392656 0.404058 0.408809 0.412365 0.399907 0.411623
2 0.410768 0.398755 0.404716 0.424611 0.454104 0.468231
2 0.493993 0.555522 0.587939 0.606802 0.697411 0.761429
2 0.820718 0.890238 0.947098 0.987469 1.070785 1.119477
2 1.177614 1.223073 1.317097 1.354297 1.381481 1.413766
2 1.466247 1.530109 1.463888 1.560424 1.551961 1.526350
2 1.537738 1.581410 1.625922 1.637019 1.596816 1.661577
2 1.674058 1.638349 1.602742 1.653722 1.636354 1.633995
2 1.578993 1.503449 1.654720 1.530099 1.573164 1.641806
2 1.569943 1.580999 1.496474 1.478893 1.506962 1.545068
2 1.489613 1.463255 1.478636 1.489400 1.400453 1.391208
2 1.386520 1.421729 1.379861 1.413050 1.361946 1.317530
2 1.332892 1.287049 1.245586 1.262296 1.210469 1.203035
2 1.224583 1.173759 1.141192 1.133374 1.151785 1.101725
2 1.091489 1.075570 1.078018 1.054079 1.017635 1.022780
2 1.012884 1.049478 1.033460 1.022813 0.995919 0.986069
2 0.989850 0.977801 1.048545 0.954439 1.011793 0.976255
2 1.001445 0.985027 0.982096 0.983053 1.040549 1.000680
2 0.984686 1.006113 0.988874 0.995226 0.937097 0.969219
2 0.968443 0.912469 0.942376 0.955820 0.915175 0.922115
2 0.912070 0.881359 0.889955 0.857914 0.875267 0.886597
2 0.894394 0.882830 0.896857 0.867233 0.888545 0.895117
2 0.933293 0.902111 0.903566 0.920361 0.910739 0.939681
2 0.937825 0.919500 0.961696 0.965942 0.949419 0.989453
2 1.029787 1.019569 1.030383 0.999098 1.045087 1.046749
2 1.063096 1.069133 1.039228 1.075415 1.067824 1.091059
2 1.080257 1.136895 1.096461 1.103264 1.133040 1.114784
2 1.137670 1.136465 1.196907 1.191091 1.180144 1.181289
2 1.222582 1.219493 1.231718 1.228865 1.197530 1.246232
2 1.244971 1.283587 1.301319 1.266166 1.301815 1.340401
2 1.282639 1.347211 1.283368 1.307539 1.307145 1.307573
2 1.284705 1.290115 1.286870 1.311475 1.310289 1.358567
2 1.335646 1.286559 1.308480 1.326485 1.302044 1.300204
2 1.304091 1.325930 1.281517 1.295080 1.315278 1.309975
2 1.306229 1.287726 1.318936 1.344327 1.294305 1.272488
2 1.289112 1.247705 1.232775 1.241388 1.164907 1.186813
2 1.191649 1.151719 1.142002 1.136908 1.089230 1.095006
2 1.068520 1.055057 1.050954 1.001641 0.967747 0.936482
2 0.904093 0.844343 0.824661 0.798843 0.742941 0.749004
2 0.726307 0.679092 0.663444 0.636086 0.638845 0.601219
2 0.597330 0.577046 0.576110 0.544766 0.570299 0.536394
2 0.539714 0.529538 0.517003 0.509352 0.521925 0.500866
2 0.502712 0.485740 0.480784 0.484800 0.481940 0.464028
2 0.444776 0.467459 0.433173 0.418127 0.443447 0.407789
2 0.388306 0.382948 0.378886 0.365286 0.345903 0.352822
2 0.326311 0.312626 0.318101 0.313852 0.296452 0.290980
2 0.306183 0.291017 0.301763 0.323396 0.326321 0.335376
2 0.350659 0.358250 0.360507 0.389745 0.398949 0.397083
2 0.400361 0.420839 0.399987 0.399362 0.403552 0.412454
2 0.415262 0.404757 0.417379 0.415442 0.442171 0.461029
2 0.489932 0.556916 0.575322 0.629570 0.698086 0.773152
2 0.824893 0.930995 0.946957 1.019459 1.084729 1.173806
2 1.212174 1.251853 1.280550 1.358259 1.433045 1.420611
2 1.482452 1.505155 1.551355 1.523823 1.642728 1.545556
2 1.588302 1.641039 1.628422 1.651212 1.611231 1.626018
2 1.628132 1.676488 1.644323 1.643120 1.590789 1.637255
2 1.607219 1.638084 1.651459 1.571336 1.561497 1.540102
2 1.555153 1.539689 1.553926 1.528977 1.512174 1.544277
2 1.471864 1.499765 1.460848 1.478975 1.482083 1.417083
2 1.421167 1.396245 1.351452 1.361784 1.344638 1.329343
2 1.294842 1.284042 1.234400 1.236440 1.241214 1.231662
2 1.182829 1.178604 1.165112 1.148608 1.140927 1.073528
2 1.098915 1.091855 1.052579 1.097833 1.054712 1.073814
2 1.015820 1.005433 1.021493 0.976999 1.010413 1.004374
2 1.020313 1.012818 0.990329 0.977380 1.034771 0.986124
2 0.982555 0.983081 1.028260 0.995554 0.990111 1.006112
2 0.995861 0.981557 1.003578 1.002001 0.991748 0.978146
2 0.961384 0.910311 0.965185 0.930043 0.926581 0.927442
2 0.925800 0.901491 0.896994 0.875057 0.883824 0.866845
2 0.868949 0.866626 0.881367 0.905400 0.946822 0.898163
2 0.875729 0.928913 0.907184 0.907814 0.931688 0.912846
2 0.948926 0.951981 0.964719 0.979531 0.982787 0.991107
2 1.005686 1.017431 0.996925 0.997281 1.033937 1.013745
2 1.053807 1.080076 1.081252 1.053743 1.065604 1.099324
2 1.091171 1.100800 1.128945 1.101279 1.122274 1.121096
2 1.123478 1.135838 1.179825 1.173877 1.160727 1.185102
2 1.160669 1.191948 1.272001 1.227290 1.257513 1.247406
2 1.267135 1.284048 1.247328 1.282255 1.330459 1.274816
2 1.285273 1.295347 1.312657 1.320659 1.340578 1.320332
2 1.304974 1.338429 1.322656 1.263978 1.367468 1.346704
2 1.295626 1.309637 1.334468 1.296070 1.320255 1.330781
2 1.276306 1.287623 1.327659 1.315585 1.327093 1.298414
2 1.292486 1.245464 1.264118 1.290517 1.305042 1.290994
2 1.266661 1.254450 1.256976 1.242514 1.262865 1.218409
2 1.164450 1.153632 1.201505 1.120062 1.143458 1.098047
2 1.076415 1.051692 1.052335 0.994347 0.966695 0.906009
2 0.903720 0.871022 0.830512 0.816137 0.764726 0.740660
2 0.734371 0.666456 0.660584 0.665925 0.641828 0.622591
2 0.609992 0.590973 0.594304 0.569312 0.558225 0.548684
2 0.541148 0.519492 0.533098 0.517207 0.530999 0.505421
2 0.504209 0.496088 0.480995 0.489794 0.491163 0.465523
2 0.455044 0.446305 0.424042 0.429895 0.423689 0.419783
2 0.407680 0.385021 0.374039 0.372081 0.350676 0.336940
2 0.338934 0.326858 0.312221 0.302094 0.289253 0.302901
2 0.294622 0.291531 0.319158 0.321369 0.319241 0.328967
2 0.354267 0.353038 0.379715 0.384731 0.392821 0.398660
2 0.401532 0.409107 0.398557 0.402136 0.406656 0.405175
2 0.392823 0.402790 0.416918 0.423731 0.460740 0.465222
2 0.498378 0.547087 0.588449 0.634486 0.682530 0.758135
2 0.834011 0.890757 0.933614 1.049440 1.047572 1.104938
2 1.223053 1.260438 1.290939 1.321953 1.458679 1.435722
2 1.482607 1.507304 1.538279 1.565480 1.592071 1.574231
2 1.590667 1.554727 1.593552 1.633057 1.661391 1.647964
2 1.616643 1.584408 1.531833 1.654606 1.593004 1.591726
2 1.604210 1.549000 1.576406 1.645020 1.590202 1.578444
2 1.510269 1.621164 1.498930 1.592365 1.458757 1.554583
2 1.548542 1.462370 1.485253 1.473817 1.418657 1.384405
2 1.371614 1.406324 1.371073 1.339962 1.362757 1.331853
2 1.280358 1.250838 1.276619 1.231970 1.230000 1.248212
2 1.204890 1.155858 1.163549 1.122201 1.165030 1.101524
2 1.104560 1.093348 1.077488 1.020659 1.020902 1.031835
2 1.038733 1.021193 0.997465 0.983676 0.998007 0.993032
2 1.010257 0.992295 1.010706 0.987430 0.995385 0.995023
2 0.987836 1.017447 0.989419 0.995499 1.003795 0.977315
2 0.993501 0.980896 0.980994 0.979921 0.957022 0.959129
2 0.978666 0.943347 0.955397 0.930866 0.929621 0.893160
2 0.901888 0.896404 0.878352 0.871096 0.856914 0.908300
2 0.864497 0.906154 0.875860 0.871497 0.901441 0.883477
2 0.910232 0.899961 0.921444 0.902155 0.943221 0.945208
2 0.927347 1.004076 0.973225 1.016648 1.012874 0.987041
2 0.991755 1.000906 0.980668 1.012355 1.040322 1.075502
2 1.035707 1.078874 1.041518 1.063685 1.074335 1.100274
2 1.110061 1.129137 1.132826 1.128926 1.140185 1.175524
2 1.135691 1.173554 1.121958 1.182308 1.170083 1.190666
2 1.224962 1.213673 1.241161 1.265749 1.249022 1.278295
2 1.250154 1.267030 1.262175 1.309813 1.300414 1.282285
2 1.304021 1.330519 1.304606 1.282135 1.310886 1.255490
2 1.326685 1.294550 1.292046 1.325774 1.266156 1.351313
2 1.287514 1.286211 1.326586 1.318983 1.365041 1.296518
2 1.299610 1.264763 1.294977 1.284762 1.291323 1.256451
2 1.343176 1.260565 1.221263 1.258658 1.268364 1.248054
2 1.297813 1.257829 1.252175 1.255718 1.235386 1.238627
2 1.173373 1.170798 1.181616 1.088787 1.095262 1.115034
2 1.069708 1.074264 1.043866 0.974278 0.975207 0.957086
2 0.902654 0.845019 0.841096 0.804030 0.772173 0.746799
2 0.668352 0.699895 0.690770 0.653111 0.632461 0.622812
2 0.604059 0.594786 0.575540 0.556378 0.544401 0.536026
2 0.524265 0.520442 0.543499 0.526381 0.505926 0.502235
2 0.501126 0.487181 0.487747 0.487733 0.472797 0.468790
2 0.465912 0.447051 0.443233 0.428759 0.421332 0.408441
2 0.395769 0.389604 0.380383 0.364966 0.355407 0.335389
2 0.321812 0.322884 0.316398 0.306030 0.309505 0.304805
2 0.316083 0.302223 0.303172 0.312561 0.322988 0.340365
2 0.333173 0.368825 0.368349 0.378170 0.380260 0.394556
2 0.400106 0.401047 0.404938 0.396712 0.393453 0.405058
2 0.403236 0.408466 0.423607 0.418480 0.437337 0.480700
2 0.485171 0.524685 0.594147 0.639367 0.694473 0.752210
2 0.817542 0.880677 0.974083 1.006135 1.075301 1.182008
2 1.200660 1.310783 1.302544 1.388616 1.347826 1.436769
2 1.420447 1.523077 1.488025 1.557540 1.560231 1.549393
2 1.548180 1.594353 1.675170 1.614716 1.657231 1.626596
2 1.656275 1.566081 1.608848 1.648061 1.606737 1.603355
2 1.586225 1.630441 1.596958 1.582428 1.594537 1.585621
2 1.566262 1.599549 1.540972 1.541939 1.503603 1.516622
2 1.547633 1.467757 1.439414 1.486917 1.437838 1.428463
2 1.407470 1.393472 1.396773 1.332513 1.309854 1.320696
2 1.258233 1.246433 1.310565 1.264226 1.227318 1.240024
2 1.168078 1.168717 1.174284 1.164376 1.140298 1.057416
2 1.078702 1.097029 1.066421 1.116237 1.070797 1.052878
2 1.009082 1.023292 1.021837 1.033742 1.023817 1.023134
2 0.981522 1.027023 0.971096 0.988604 1.009127 0.998994
2 0.983347 0.988373 0.974640 1.016697 1.030609 1.001334
2 0.991993 0.965751 1.006726 1.024487 0.937618 0.942879
2 0.940742 0.933182 0.938251 0.954305 0.933913 0.916784
2 0.886969 0.873991 0.875077 0.913093 0.882149 0.874029
2 0.878403 0.896948 0.860912 0.911888 0.893143 0.890901
2 0.907971 0.909949 0.906392 0.915319 0.911672 0.948361
2 0.934671 0.935428 0.966018 0.997957 0.980513 0.978733
2 1.008078 1.048133 0.988366 1.034490 1.039459 1.067895
2 1.072813 1.056213 1.032290 1.093668 1.066148 1.071473
2 1.125264 1.087634 1.146927 1.131008 1.138573 1.146329
2 1.109817 1.114590 1.169071 1.185983 1.183454 1.171043
2 1.200454 1.207705 1.196223 1.254443 1.196488 1.263749
2 1.268045 1.292829 1.249862 1.285651 1.345737 1.312580
2 1.302615 1.317422 1.307882 1.364206 1.333157 1.305034
2 1.313189 1.295347 1.335848 1.266312 1.259919 1.338608
2 1.355981 1.311987 1.302965 1.317645 1.284408 1.306477
2 1.303761 1.319656 1.263014 1.290352 1.325039 1.284275
2 1.274173 1.350306 1.294758 1.274375 1.240414 1.296057
2 1.287675 1.253769 1.223950 1.239964 1.207825 1.191961
2 1.197523 1.158869 1.171837 1.160873 1.107325 1.073762
2 1.113808 1.034690 1.013683 1.002450 0.978936 0.929832
2 0.908294 0.854956 0.810504 0.816588 0.801901 0.761231
2 0.712948 0.712997 0.671405 0.641277 0.635909 0.613097
2 0.588203 0.576584 0.584755 0.544175 0.562273 0.529120
2 0.516199 0.512241 0.545657 0.516525 0.513217 0.520555
2 0.509342 0.479915 0.495555 0.482033 0.469902 0.465887
2 0.469513 0.441532 0.444256 0.431345 0.406420 0.404514
2 0.401546 0.398329 0.383654 0.368247 0.346159 0.352676
2 0.331170 0.313768 0.310962 0.311205 0.301426 0.304680
2 0.306622 0.305873 0.304046 0.318117 0.326978 0.349693
2 0.336876 0.358379 0.365797 0.382593 0.369703 0.404277
2 0.400110 0.387195 0.399305 0.406335 0.387879 0.400690
2 0.393930 0.402337 0.415043 0.428784 0.440758 0.471468
2 0.508180 0.535790 0.601322 0.654945 0.687073 0.743978
2 0.789837 0.880069 0.941480 1.030014 1.046211 1.134727
2 1.223250 1.236441 1.285382 1.312535 1.467036 1.410955
2 1.428783 1.473701 1.501401 1.540406 1.594988 1.576670
2 1.570470 1.564060 1.619523 1.625632 1.677206 1.631465
2 1.624511 1.591316 1.612002 1.603167 1.600066 1.575318
2 1.617227 1.589263 1.581150 1.526837 1.589833 1.582449
2 1.533457 1.582268 1.500721 1.532740 1.514928 1.472249
2 1.505691 1.537516 1.474797 1.444354 1.455022 1.428740
2 1.409523 1.379430 1.412470 1.367627 1.322771 1.315608
2 1.280737 1.266036 1.247208 1.217107 1.246648 1.203020
2 1.206125 1.160378 1.158422 1.127729 1.144965 1.108501
2 1.083921 1.050981 1.079989 1.047219 1.050984 1.031015
2 1.051836 1.035159 1.026027 0.998482 1.015470 1.036804
2 0.983356 1.002256 0.965727 1.027267 0.992545 1.017681
2 0.968953 1.041010 0.998606 1.016973 1.008297 0.998223
2 1.033716 0.962254 0.994576 0.998966 0.972001 0.961092
2 0.950983 0.920660 0.934716 0.933939 0.916703 0.902271
2 0.891185 0.889016 0.911616 0.848710 0.883947 0.876130
2 0.907313 0.883375 0.910384 0.849125 0.898540 0.899784
2 0.925030 0.876251 0.909845 0.921184 0.918594 0.958848
2 0.938324 0.992476 0.983124 0.990602 0.992441 0.969705
2 0.991378 1.020607 1.031719 1.053483 1.025535 1.025696
2 1.070040 1.043005 1.086940 1.102131 1.094151 1.084342
2 1.100904 1.120965 1.115854 1.172856 1.108936 1.116480
2 1.124997 1.142021 1.113325 1.157894 1.166065 1.192475
2 1.210027 1.179684 1.241523 1.273827 1.234214 1.288371
2 1.263380 1.317642 1.304009 1.242918 1.290213 1.322743
2 1.300794 1.302406 1.338788 1.288384 1.307894 1.315734
2 1.297873 1.305026 1.324505 1.314234 1.280642 1.271941
2 1.279483 1.299846 1.295875 1.278909 1.285681 1.262435
2 1.313634 1.302280 1.270789 1.304317 1.338008 1.282599
2 1.334194 1.288929 1.298890 1.291824 1.319857 1.281471
2 1.240915 1.228235 1.213170 1.198097 1.229493 1.191565
2 1.198061 1.167096 1.148109 1.135897 1.142086 1.124487
2 1.088100 1.033645 1.040465 1.011950 0.972653 0.923340
2 0.912759 0.869157 0.775033 0.804173 0.734646 0.746028
2 0.708741 0.704196 0.665353 0.635976 0.628175 0.627276
2 0.600315 0.585790 0.584082 0.567420 0.555494 0.561889
2 0.555834 0.538322 0.522003 0.534084 0.524453 0.513465
2 0.487839 0.495042 0.479844 0.478737 0.475407 0.466593
2 0.453445 0.460941 0.425772 0.437729 0.405911 0.414256
2 0.392905 0.395075 0.376772 0.365704 0.344731 0.335956
2 0.331117 0.323951 0.330388 0.307088 0.307263 0.290048
2 0.292021 0.301285 0.301944 0.326689 0.324002 0.346476
2 0.358556 0.359656 0.373835 0.379619 0.392835 0.399282
2 0.399011 0.406088 0.416076 0.407170 0.403242 0.401664
2 0.394291 0.398502 0.417504 0.415516 0.438128 0.480927
2 0.519142 0.520843 0.603603 0.633644 0.692807 0.751882
2 0.834688 0.853934 0.957026 0.995045 1.091098 1.176265
2 1.199990 1.264160 1.315976 1.330035 1.436120 1.481254
2 1.487523 1.499977 1.510930 1.529345 1.622776 1.631003
2 1.597963 1.559917 1.527125 1.589055 1.623127 1.674073
2 1.606519 1.641884 1.664200 1.621508 1.607408 1.564091
2 1.561521 1.607067 1.581133 1.584911 1.572801 1.588001
2 1.535155 1.541130 1.601342 1.508883 1.514612 1.494258
2 1.513343 1.517289 1.458130 1.445275 1.434082 1.440834
2 1.387909 1.380809 1.308251 1.317805 1.333901 1.342132
2 1.307672 1.253464 1.228016 1.249711 1.186986 1.235860
2 1.194429 1.138332 1.137415 1.127425 1.111265 1.080839
2 1.080757 1.071786 1.058788 1.086233 1.053519 1.020571
2 1.025231 1.006001 1.010830 1.028641 1.011164 1.048247
2 1.007519 0.980564 1.014841 1.020899 1.022402 0.980069
2 1.000576 1.027631 0.971895 0.995946 0.976576 0.984635
2 0.979751 1.019940 0.984032 0.964157 0.952438 0.966099
2 0.953492 0.969206 0.943344 0.897987 0.903931 0.926627
2 0.888821 0.925024 0.869714 0.895814 0.868026 0.872922
2 0.901014 0.880153 0.898510 0.895188 0.903780 0.878878
2 0.896012 0.913679 0.897176 0.949950 0.913372 0.930456
2 0.925704 0.912787 0.997426 0.968143 0.972670 0.986846
2 1.028397 0.989571 1.031760 1.017941 1.022860 1.055486
2 1.072757 1.049275 1.051854 1.051140 1.108189 1.079588
2 1.059319 1.139055 1.085061 1.140976 1.135503 1.145888
2 1.134005 1.164098 1.125225 1.186453 1.218294 1.211656
2 1.151531 1.185878 1.214989 1.241483 1.236733 1.236721
2 1.273354 1.296743 1.269581 1.301754 1.223207 1.271137
2 1.291647 1.290632 1.314322 1.333437 1.320685 1.291004
2 1.266802 1.320094 1.256338 1.319972 1.296790 1.270075
2 1.307469 1.299738 1.299082 1.298358 1.312166 1.326090
2 1.315686 1.329706 1.302485 1.345767 1.317902 1.287709
2 1.271559 1.302661 1.259965 1.264203 1.290009 1.261893
2 1.246213 1.260436 1.253359 1.235467 1.219084 1.235616
2 1.208218 1.178471 1.223557 1.151373 1.151736 1.091586
2 1.050640 1.037823 1.021736 0.988283 0.993195 0.932379
2 0.908306 0.861067 0.819391 0.794544 0.790070 0.724949
2 0.721837 0.673664 0.660534 0.647504 0.634145 0.632477
2 0.599399 0.577226 0.583006 0.560927 0.558212 0.545674
2 0.518115 0.537205 0.531131 0.528170 0.530779 0.494088
2 0.505165 0.497694 0.483006 0.484078 0.477864 0.454311
2 0.460050 0.441244 0.434977 0.416115 0.417581 0.409437
2 0.404399 0.388262 0.364519 0.370176 0.351063 0.343738
2 0.336121 0.329324 0.324346 0.305283 0.303255 0.292914
2 0.306370 0.296251 0.298183 0.322526 0.323274 0.342399
2 0.351044 0.347633 0.349988 0.371711 0.388778 0.385796
2 0.394778 0.390297 0.403577 0.402175 0.396774 0.411859
2 0.414497 0.411461 0.399889 0.417778 0.448570 0.463014
2 0.495129 0.548483 0.590558 0.653060 0.687066 0.774318
2 0.807976 0.908763 0.950381 0.996757 1.043589 1.134177
2 1.193850 1.276293 1.302397 1.339961 1.424003 1.425927
2 1.450028 1.514994 1.510078 1.569157 1.550354 1.579061
2 1.604870 1.598764 1.618379 1.650741 1.640742 1.644119
2 1.607047 1.653198 1.643646 1.649840 1.588582 1.600592
2 1.620273 1.574397 1.580332 1.641932 1.635743 1.606049
2 1.588908 1.519915 1.558648 1.522397 1.490942 1.496689
2 1.503470 1.470609 1.456581 1.480948 1.446285 1.432383
2 1.411893 1.372469 1.335763 1.363675 1.323350 1.265433
2 1.289793 1.253632 1.281051 1.258352 1.239764 1.193968
2 1.210358 1.183660 1.150315 1.133625 1.148871 1.103484
2 1.106680 1.109132 1.115082 1.097618 1.070256 1.009895
2 1.017915 1.012790 1.050555 0.996800 1.013858 1.004447
2 0.981297 1.006441 1.006623 0.974216 1.024977 0.960184
2 0.991682 1.024418 0.981781 1.013041 0.979201 1.001482
2 0.953725 0.978284 0.958161 0.973214 0.964505 0.950389
2 0.968924 0.927093 0.945854 0.954583 0.917993 0.891650
2 0.877512 0.881319 0.901779 0.888427 0.899788 0.895498
2 0.884126 0.890752 0.916932 0.911902 0.884965 0.912483
2 0.910545 0.926583 0.924934 0.902044 0.897740 0.946793
2 0.980672 0.938872 0.959202 0.951978 1.004582 0.945105
2 0.954727 1.016616 1.016248 1.016794 1.028979 1.054859
2 1.043259 1.036913 1.048467 1.095428 1.072880 1.061894
2 1.102248 1.119004 1.145279 1.128358 1.116425 1.150128
2 1.164103 1.154748 1.163015 1.178762 1.179851 1.196561
2 1.175474 1.181856 1.199176 1.245301 1.245792 1.275028
2 1.253674 1.238253 1.304705 1.282568 1.322839 1.310919
2 1.356904 1.297639 1.329152 1.330238 1.292921 1.302763
2 1.268397 1.265111 1.307590 1.323619 1.318307 1.309508
2 1.322438 1.284483 1.292948 1.319733 1.312520 1.296544
2 1.337160 1.269645 1.290112 1.296183 1.324298 1.301927
2 1.267201 1.310658 1.321912 1.308367 1.299768 1.229537
2 1.247062 1.273467 1.250166 1.253539 1.197249 1.213357
2 1.166645 1.137507 1.172983 1.166254 1.131770 1.103244
2 1.046340 1.075740 1.026337 1.037318 0.985571 0.897142
2 0.913591 0.837796 0.814003 0.789959 0.762446 0.742111
2 0.696388 0.671948 0.674670 0.647286 0.632229 0.587307
2 0.597874 0.576673 0.564926 0.575461 0.543386 0.534990
2 0.535500 0.536588 0.515723 0.531359 0.527186 0.497264
2 0.497549 0.485965 0.470670 0.483175 0.480077 0.484397
2 0.449579 0.461510 0.452555 0.433136 0.426650 0.418291
2 0.415793 0.391965 0.375669 0.357597 0.354046 0.347386
2 0.331364 0.315219 0.312660 0.304935 0.302975 0.289420
2 0.303305 0.307056 0.312105 0.317233 0.314883 0.337025
2 0.355589 0.353166 0.355395 0.368336 0.391091 0.398408
2 0.407090 0.401583 0.390141 0.394874 0.407192 0.401790
2 0.407672 0.410400 0.413120 0.425730 0.461474 0.472798
2 0.498714 0.543703 0.587191 0.608879 0.702025 0.781036
2 0.804281 0.907961 0.943502 1.020164 1.101877 1.124626
2 1.229820 1.224299 1.282438 1.335606 1.412432 1.422603
2 1.422340 1.491295 1.501099 1.571402 1.558315 1.588379
2 1.587025 1.624797 1.612871 1.634814 1.542970 1.631621
2 1.641209 1.618994 1.643640 1.641242 1.654048 1.609499
2 1.538758 1.520951 1.536653 1.579838 1.569337 1.575843
2 1.540128 1.528689 1.559959 1.553527 1.515371 1.510919
2 1.512129 1.501884 1.439108 1.436873 1.406637 1.411272
2 1.431628 1.406471 1.343248 1.369142 1.339202 1.305431
2 1.263432 1.277147 1.280579 1.191483 1.217840 1.264620
2 1.208953 1.182253 1.142722 1.128477 1.126839 1.149749
2 1.110243 1.067706 1.099346 1.056053 1.087004 1.029456
2 1.011429 1.027591 1.036911 1.031915 1.009291 0.982615
2 0.989893 0.958496 0.980430 0.995748 1.008291 0.995195
2 1.002396 0.996922 1.020892 0.987904 1.022104 1.042698
2 1.009456 0.984563 0.978065 1.004837 0.950668 0.944992
2 0.931494 0.919700 0.914486 0.939064 0.935628 0.894564
2 0.903732 0.907584 0.891036 0.868756 0.857265 0.899733
2 0.890392 0.892578 0.864540 0.890961 0.901557 0.900392
2 0.886590 0.924334 0.884790 0.937057 0.947854 0.965508
2 0.938252 0.934604 0.978112 0.958521 0.982326 0.984492
2 0.981959 1.015526 0.989585 1.038802 1.015194 1.007504
2 1.050911 1.069324 1.080607 1.093922 1.033220 1.070197
2 1.102346 1.141471 1.133114 1.166184 1.119475 1.145580
2 1.122173 1.146302 1.146935 1.157792 1.172205 1.190670
2 1.200533 1.222838 1.222984 1.221049 1.226423 1.241369
2 1.247071 1.279681 1.297587 1.315742 1.269156 1.307587
2 1.263738 1.313096 1.333903 1.303028 1.335485 1.277504
2 1.283373 1.302005 1.330954 1.292076 1.289889 1.274867
2 1.305275 1.332223 1.318252 1.318670 1.295861 1.287349
2 1.320392 1.302492 1.299109 1.326990 1.297864 1.280052
2 1.323639 1.299416 1.266938 1.260606 1.286319 1.337141
2 1.259941 1.252823 1.289681 1.239152 1.192775 1.176636
2 1.229440 1.199537 1.185352 1.145602 1.109869 1.099177
2 1.083021 1.036841 1.038777 0.973050 0.960902 0.930810
2 0.887562 0.823851 0.833962 0.781940 0.784137 0.731221
2 0.703234 0.689036 0.680708 0.640162 0.642819 0.631951
2 0.611884 0.606231 0.590402 0.582162 0.573386 0.549221
2 0.534441 0.507737 0.511117 0.513910 0.508419 0.504640