; Filename: D:/OneDrive/IHE_HI/015. Thesis/Github_repositories\Msc-Thesis/INP_FILES/Twoloops_Base_WNTR.inp
; WNTR: 0.4.2
; Created: 2023-03-07 09:38:01
[TITLE]

[JUNCTIONS]
;ID                      Elevation       Demand Pattern                 
 1                                160             100 34                         ;
 2                                150             100 34                         ;
 3                                150             270 34                         ;
 4                                155             120 34                         ;
 5                                160             200 34                         ;
 6                                165             330 34                         ;

[RESERVOIRS]
;ID                                   Head                  Pattern
 7                                210                            ;

[TANKS]
;ID                              Elevation           Init Level            Min Level            Max Level             Diameter           Min Volume Volume Curve         Overflow            

[PIPES]
;ID                   Node1                Node2                              Length             Diameter            Roughness           Minor Loss               Status
 1                    2                    1                               1000             200             130               0                 Open   ;
 2                    1                    3                               1000             150             130               0                 Open   ;
 3                    2                    4                               1000             450             130               0                 Open   ;
 4                    4                    3                               1000             150             130               0                 Open   ;
 5                    5                    3                               1000             150             130               0                 Open   ;
 6                    4                    6                               1000             400             130               0                 Open   ;
 7                    6                    5                               1000             250             130               0                 Open   ;
 8                    7                    2                               1000             450             130               0                 Open   ;

[PUMPS]
;ID                   Node1                Node2                Properties          

[VALVES]
;ID                   Node1                Node2                            Diameter Type              Setting           Minor Loss

[TAGS]
;type      name       tag       

[DEMANDS]
;ID        Demand     Pattern   

[STATUS]
;ID        Setting   

[PATTERNS]
;ID        Multipliers

34 1.027012 0.889459 0.891277 0.936271 0.878011 0.678695
34 0.764968 0.679449 0.661157 0.668725 0.637292 0.685720
34 0.636530 0.592847 0.595960 0.580126 0.621964 0.537969
34 0.552569 0.495462 0.417779 0.545675 0.547760 0.476133
34 0.590790 0.436217 0.488872 0.473072 0.531153 0.520398
34 0.463470 0.463096 0.409421 0.363063 0.409839 0.416253
34 0.439369 0.425602 0.364467 0.355100 0.322379 0.301742
34 0.284739 0.370187 0.299379 0.295011 0.271174 0.317991
34 0.261266 0.298278 0.287191 0.327077 0.313333 0.305311
34 0.347417 0.371662 0.372090 0.389242 0.368927 0.383983
34 0.378481 0.390463 0.376046 0.346005 0.406318 0.387786
34 0.349957 0.421925 0.384712 0.428992 0.470900 0.473748
34 0.545576 0.485570 0.603401 0.601474 0.644737 0.718694
34 0.796667 0.886267 0.859974 1.087302 1.118971 1.000822
34 1.342872 1.445082 1.428376 1.332195 1.274568 1.553197
34 1.419619 1.644258 1.550427 1.669756 1.613820 1.675792
34 1.601344 1.840953 1.635251 1.676485 1.872546 1.452873
34 1.462293 1.751531 1.469709 1.868832 1.558660 1.510091
34 1.846137 1.782576 1.824693 1.695636 1.465824 1.806658
34 1.526192 1.651147 1.659749 1.514395 1.598019 1.623638
34 1.545171 1.356111 1.507945 1.612548 1.361996 1.408659
34 1.359699 1.597096 1.447277 1.399435 1.254563 1.375334
34 1.229869 1.284892 1.199132 1.312752 1.284189 1.189899
34 1.230697 1.073294 1.021454 1.184211 1.143769 1.170632
34 1.309717 1.168767 0.995632 1.157195 0.940641 1.002805
34 1.026504 1.164374 0.956343 0.944101 0.998163 0.949218
34 1.090131 0.912522 0.906993 0.964313 0.960644 1.156669
34 1.079762 1.011922 0.907183 1.073948 0.924826 0.879354
34 1.095042 1.020282 1.061503 1.006114 1.039249 0.913195
34 0.874795 0.995299 0.873973 0.873462 0.882085 0.908480
34 0.874512 0.795672 0.843460 0.728135 0.927418 0.768881
34 0.803749 0.886078 0.831817 0.996261 0.798268 0.913888
34 0.897172 0.821329 0.950881 0.907343 0.985079 0.997741
34 1.108216 1.055635 0.934388 0.953499 1.067804 1.042721
34 1.051211 0.878521 1.015944 0.966027 1.058396 1.035455
34 1.128564 1.087076 1.135482 1.036145 1.002337 1.056326
34 1.098502 1.141418 1.317270 1.119664 1.044832 1.107792
34 1.104861 1.200162 1.020567 1.178596 1.196295 1.212720
34 1.142658 1.186665 1.080630 1.180986 1.185552 1.290615
34 1.141980 1.346435 1.428005 1.070578 1.333714 1.365578
34 1.233707 1.261945 1.291752 1.275803 1.275115 1.131993
34 1.427046 1.418311 1.219419 1.150100 1.355958 1.240750
34 1.314763 1.266608 1.371955 1.372833 1.225713 1.157924
34 1.137773 1.366965 1.179648 1.250717 1.240858 1.296390
34 1.098627 1.316914 1.347995 1.298423 1.251938 1.287377
34 1.310458 0.981539 1.447372 1.279289 1.164248 1.176855
34 1.247399 1.172765 0.976649 1.336352 1.116278 1.194072
34 1.020285 1.184133 1.050773 1.046817 0.886451 1.025180
34 0.949667 0.951630 0.785027 0.763388 0.904677 0.673822
34 0.703200 0.750331 0.671874 0.677652 0.609899 0.632441
34 0.537287 0.665016 0.570083 0.534296 0.585177 0.526786
34 0.481528 0.474504 0.554144 0.511940 0.506850 0.549830
34 0.454927 0.464797 0.472091 0.483889 0.471539 0.454973
34 0.455538 0.445638 0.415351 0.403369 0.430831 0.381809
34 0.362965 0.378555 0.371377 0.429599 0.332059 0.366101
34 0.349462 0.289756 0.331411 0.276770 0.237266 0.313891
34 0.257859 0.314389 0.292424 0.359377 0.354608 0.324927
34 0.329041 0.324446 0.357065 0.371522 0.377311 0.400417
34 0.418513 0.413273 0.377622 0.355270 0.444365 0.378565
34 0.381441 0.389897 0.353657 0.410881 0.427874 0.492181
34 0.527938 0.538958 0.628164 0.653642 0.692145 0.763293
34 0.804570 0.854433 0.928061 0.922688 1.102986 1.050400
34 1.280797 1.229729 1.310453 1.405050 1.465717 1.252391
34 1.442653 1.603246 1.317846 1.596734 1.285952 1.456387
34 1.604945 1.397324 1.491186 1.433000 1.841949 1.649849
34 1.701606 1.596516 1.576067 1.408198 1.574365 1.508287
34 1.709814 1.739299 1.773769 1.688870 1.498894 1.427279
34 1.655288 1.595768 1.324548 1.577019 1.622443 1.519210
34 1.477794 1.390815 1.302368 1.551191 1.406466 1.399097
34 1.604017 1.467457 1.414154 1.370660 1.499474 1.499832
34 1.396669 1.341324 1.051692 1.257686 1.214788 1.219158
34 1.282902 0.918361 1.106998 1.168699 1.086564 0.987757
34 1.176469 1.110730 0.990624 1.089022 1.120415 1.041696
34 1.098242 1.030426 0.984778 0.917171 0.999171 1.018006
34 1.070067 0.989616 1.035212 0.922199 0.937865 0.993149
34 0.918870 1.070824 1.043049 1.028456 1.032520 1.165574
34 0.962491 0.819808 1.004433 0.977126 0.932316 0.887931
34 0.920196 0.957526 0.896433 1.102877 0.845103 0.849650
34 0.735219 0.911996 0.745801 0.847449 0.863761 0.831837
34 1.004288 0.952592 0.977429 0.824192 0.970744 0.930277
34 0.955541 0.980605 0.846322 0.888740 0.991819 0.737204
34 1.059097 0.995867 0.959304 0.989264 0.900595 0.963046
34 1.088023 1.113829 1.237489 1.020571 0.980674 1.000716
34 0.966290 1.053568 1.100990 1.073357 1.179357 1.071689
34 1.069424 1.056300 0.969914 0.982556 1.024629 1.257947
34 1.229594 1.282766 1.039992 0.987979 1.119113 1.207352
34 1.247874 1.311107 1.247306 1.400919 1.217305 1.157804
34 1.089124 1.177115 1.300213 1.191827 1.386385 1.441792
34 1.053563 1.393462 1.071704 1.348917 1.435552 1.314056
34 1.172832 1.244406 1.276987 1.283958 1.280568 1.289229
34 1.322202 1.174140 1.274863 1.458515 1.261206 1.255787
34 1.415116 1.036488 1.426842 1.237673 1.320107 1.311897
34 1.398017 1.269549 1.223594 1.423168 1.041046 1.279501
34 1.132977 1.184460 1.452913 1.236148 1.247529 1.041704
34 1.130012 1.202375 1.199179 1.203528 1.127015 1.150516
34 1.119292 0.900161 1.030283 1.059518 1.012989 0.907417
34 0.841995 0.784761 0.817893 0.865908 0.644607 0.697389
34 0.646106 0.730967 0.637099 0.623080 0.619097 0.636143
34 0.581165 0.444053 0.600538 0.584889 0.545803 0.499513
34 0.554239 0.547933 0.505264 0.509569 0.474207 0.498955
34 0.437983 0.510134 0.450290 0.489412 0.419919 0.443679
34 0.453749 0.389779 0.444782 0.418343 0.362810 0.368248
34 0.419364 0.416071 0.372152 0.375684 0.358199 0.349390
34 0.363675 0.281609 0.328994 0.296382 0.295973 0.292132
34 0.290996 0.273676 0.313890 0.359667 0.325216 0.337118
34 0.329056 0.355971 0.383924 0.368789 0.374540 0.408217
34 0.370624 0.410148 0.428606 0.445121 0.397734 0.444500
34 0.435745 0.374436 0.374403 0.416794 0.481573 0.466198
34 0.475974 0.605703 0.598002 0.518201 0.710599 0.784943
34 0.831777 0.914045 0.943270 0.907241 1.046790 1.054737
34 1.110457 1.127981 1.352535 1.362236 1.343997 1.357961
34 1.464185 1.627093 1.280500 1.595445 1.500585 1.346998
34 1.350950 1.493191 1.647243 1.675325 1.505132 1.760948
34 1.813033 1.676979 1.545189 1.762837 1.709416 1.717585
34 1.515973 1.232386 1.856346 1.377288 1.569785 1.865670
34 1.600878 1.669367 1.357397 1.315339 1.458277 1.644027
34 1.458450 1.392363 1.496130 1.584038 1.275426 1.287654
34 1.319858 1.513105 1.399211 1.586427 1.437062 1.314754
34 1.431568 1.303313 1.192150 1.313105 1.159182 1.181951
34 1.319619 1.166611 1.085302 1.101502 1.220984 1.064792
34 1.065955 1.042299 1.089871 1.029509 0.916593 0.967353
34 0.955118 1.125869 1.083046 1.058434 0.965413 0.937003
34 0.959399 0.914763 1.198178 0.819812 1.045651 0.899028
34 0.995162 0.925458 0.911029 0.914232 1.146403 0.992674
34 0.938744 1.039295 0.989488 1.037611 0.830643 0.986768
34 1.012658 0.818372 0.967493 1.049903 0.914359 0.966827
34 0.948281 0.843408 0.892076 0.774644 0.851351 0.900656
34 0.932645 0.884133 0.935051 0.808550 0.883112 0.896152
34 1.033171 0.890469 0.876239 0.921540 0.859574 0.950507
34 0.917133 0.817000 0.958311 0.947421 0.853289 0.985462
34 1.119148 1.051130 1.067756 0.916463 1.074709 1.056045
34 1.096488 1.096016 0.952071 1.072741 1.018521 1.087777
34 1.021029 1.224134 1.038963 1.042668 1.138103 1.041154
34 1.108434 1.078916 1.295467 1.246380 1.176070 1.153342
34 1.290328 1.248903 1.268163 1.226933 1.071989 1.237804
34 1.204767 1.332633 1.378756 1.215515 1.338060 1.475323
34 1.230558 1.478741 1.216579 1.309339 1.306271 1.308475
34 1.219035 1.243806 1.234616 1.337036 1.336065 1.532279
34 1.442583 1.246797 1.333821 1.404293 1.304433 1.294764
34 1.308122 1.393751 1.215163 1.269608 1.352057 1.334302
34 1.324917 1.258941 1.394430 1.509399 1.325612 1.257682
34 1.346696 1.206905 1.176479 1.243830 0.974551 1.102700
34 1.166596 1.055593 1.069753 1.106853 0.978208 1.068109
34 1.033831 1.056664 1.122092 1.011972 0.968970 0.942059
34 1.027012

[CURVES]
;ID         X-Value      Y-Value     

[CONTROLS]

[RULES]

[ENERGY]
GLOBAL EFFICIENCY      75.0000
GLOBAL PRICE           0.0000
DEMAND CHARGE          0.0000

[EMITTERS]
;ID        Flow coefficient

[QUALITY]

[SOURCES]
;Node      Type       Quality    Pattern   

[REACTIONS]
;Type           Pipe/Tank               Coefficient

 ORDER BULK 1
 ORDER TANK 1
 ORDER WALL 1
 GLOBAL BULK 0.0000    
 GLOBAL WALL 0.0000    
 LIMITING POTENTIAL 0.0000    
 ROUGHNESS CORRELATION 0.0000    

[MIXING]
;Tank ID             Model Fraction

[TIMES]
DURATION             72:00:00
HYDRAULIC TIMESTEP   00:05:00
QUALITY TIMESTEP     00:05:00
PATTERN TIMESTEP     00:05:00
PATTERN START        00:00:00
REPORT TIMESTEP      00:05:00
REPORT START         00:00:00
START CLOCKTIME      00:00:00 AM
RULE TIMESTEP        00:06:00
STATISTIC            NONE      

[REPORT]
 Status             	No
 Summary            	No
 Page               	0
 Nodes					ALL
 Links					ALL
 Flow					Yes
 Headloss				No
 Velocity 				No
 Demand 				Yes
 Head 					Yes
 Pressure 				Yes
 Quality 				No
 State 					Yes

[OPTIONS]
UNITS                CMH                 
HEADLOSS             H-W                 
SPECIFIC GRAVITY     1
VISCOSITY            1
TRIALS               40
ACCURACY             0.001
CHECKFREQ            2
MAXCHECK             10
UNBALANCED           CONTINUE 10
DEMAND MULTIPLIER    1
DEMAND MODEL         PDA
MINIMUM PRESSURE     0.00
REQUIRED PRESSURE    0.10
PRESSURE EXPONENT    0.5
EMITTER EXPONENT     0.5
QUALITY              NONE                
DIFFUSIVITY          1
TOLERANCE            0.01

[COORDINATES]
;Node      X-Coord    Y-Coord   
1                4000.000000000       7000.000000000
2                5000.000000000       7000.000000000
3                4000.000000000       6000.000000000
4                5000.000000000       6000.000000000
5                4000.000000000       5000.000000000
6                5000.000000000       5000.000000000
7                6000.000000000       7000.000000000

[VERTICES]
;Link      X-Coord    Y-Coord   

[LABELS]

[BACKDROP]
DIMENSIONS    2900.000    4900.000    5100.000    7100.000
UNITS    METERS
OFFSET    0.00    0.00

[END]
