; Filename: D:/OneDrive/IHE_HI/015. Thesis/Github_repositories\Msc-Thesis/INP_FILES/Twoloops_Base_WNTR.inp
; WNTR: 0.4.2
; Created: 2023-03-07 09:38:43
[TITLE]

[JUNCTIONS]
;ID                      Elevation       Demand Pattern                 
 1                                160             100 55                         ;
 2                                150             100 55                         ;
 3                                150             270 55                         ;
 4                                155             120 55                         ;
 5                                160             200 55                         ;
 6                                165             330 55                         ;

[RESERVOIRS]
;ID                                   Head                  Pattern
 7                                210                            ;

[TANKS]
;ID                              Elevation           Init Level            Min Level            Max Level             Diameter           Min Volume Volume Curve         Overflow            

[PIPES]
;ID                   Node1                Node2                              Length             Diameter            Roughness           Minor Loss               Status
 1                    2                    1                               1000             200             130               0                 Open   ;
 2                    1                    3                               1000             150             130               0                 Open   ;
 3                    2                    4                               1000             450             130               0                 Open   ;
 4                    4                    3                               1000             150             130               0                 Open   ;
 5                    5                    3                               1000             150             130               0                 Open   ;
 6                    4                    6                               1000             400             130               0                 Open   ;
 7                    6                    5                               1000             250             130               0                 Open   ;
 8                    7                    2                               1000             450             130               0                 Open   ;

[PUMPS]
;ID                   Node1                Node2                Properties          

[VALVES]
;ID                   Node1                Node2                            Diameter Type              Setting           Minor Loss

[TAGS]
;type      name       tag       

[DEMANDS]
;ID        Demand     Pattern   

[STATUS]
;ID        Setting   

[PATTERNS]
;ID        Multipliers

55 1.058765 0.825710 0.780513 0.792546 0.712053 0.509822
55 0.590284 0.510711 0.494839 0.499984 0.464390 0.494170
55 0.430442 0.368329 0.344387 0.315926 0.344822 0.310748
55 0.359103 0.347586 0.297880 0.427685 0.437230 0.395510
55 0.613488 0.543789 0.820770 0.995227 1.383934 1.550256
55 1.489664 1.607318 1.457954 1.302519 1.571103 1.642638
55 1.796847 1.771137 1.499223 1.487055 1.342717 1.250836
55 1.168372 1.619638 1.233745 1.190804 1.043458 1.232942
55 0.922471 1.039670 0.939714 1.050053 0.948919 0.881332
55 1.000711 1.049084 1.006652 1.010773 0.893209 0.890925
55 0.839479 0.853826 0.809953 0.733708 0.915968 0.883006
55 0.790714 1.017104 0.909270 1.031975 1.128663 1.090188
55 1.225334 0.984734 1.193581 1.092356 1.095504 1.158339
55 1.219167 1.290256 1.148531 1.424671 1.367438 1.102789
55 1.493473 1.547119 1.456312 1.280117 1.160802 1.425254
55 1.218718 1.392227 1.224993 1.258940 1.118573 1.068727
55 0.900945 0.935728 0.719954 0.673484 0.712989 0.488889
55 0.470580 0.568829 0.441344 0.573609 0.438860 0.399181
55 0.476918 0.417777 0.391334 0.333425 0.274163 0.377855
55 0.338870 0.410543 0.437890 0.395223 0.427155 0.466615
55 0.518821 0.566377 0.841398 1.148735 1.116652 1.331425
55 1.403100 1.835155 1.707567 1.690432 1.502412 1.704566
55 1.492107 1.586069 1.460463 1.637136 1.586489 1.427487
55 1.464528 1.207119 1.106137 1.300080 1.212788 1.216645
55 1.362146 1.162598 0.937923 1.123863 0.868409 0.953188
55 0.996691 1.178355 0.925525 0.900016 0.944315 0.863123
55 1.001397 0.790025 0.780477 0.847968 0.855177 1.097479
55 1.034417 0.980627 0.877456 1.113328 0.946746 0.910041
55 1.230683 1.159069 1.253076 1.210037 1.302820 1.149465
55 1.128226 1.370501 1.195557 1.216819 1.247076 1.305232
55 1.253981 1.121730 1.218900 1.013735 1.381280 1.082749
55 1.129670 1.247045 1.111252 1.323899 0.940443 1.024854
55 0.896465 0.701201 0.748133 0.636350 0.646307 0.611574
55 0.655681 0.587867 0.481541 0.468768 0.508137 0.459699
55 0.425605 0.305060 0.328949 0.283162 0.308398 0.314143
55 0.379894 0.392101 0.431453 0.382721 0.364433 0.409699
55 0.499149 0.660462 1.001624 1.009926 1.085287 1.304886
55 1.398927 1.623320 1.353472 1.634525 1.653209 1.654902
55 1.504429 1.543420 1.337530 1.457764 1.418571 1.518508
55 1.245865 1.461130 1.494283 0.987572 1.243754 1.221436
55 1.029882 1.020068 1.018424 0.980835 0.969099 0.831829
55 1.119180 1.114603 0.918664 0.837227 1.003399 0.871230
55 0.912776 0.857389 0.942612 0.948404 0.834696 0.792703
55 0.795179 1.031452 0.881114 0.974610 0.989235 1.070648
55 0.887009 1.144671 1.207528 1.183030 1.162694 1.241485
55 1.308587 0.927312 1.554269 1.357921 1.221352 1.252015
55 1.364186 1.285449 1.038200 1.572692 1.285630 1.420834
55 1.182033 1.431172 1.234361 1.216756 0.967186 1.119093
55 0.962084 0.897299 0.666279 0.616313 0.738235 0.505147
55 0.531740 0.577514 0.504886 0.508261 0.439509 0.447394
55 0.347739 0.424240 0.325854 0.284930 0.319991 0.302640
55 0.301743 0.328864 0.427751 0.395040 0.397061 0.473260
55 0.443659 0.589840 0.785585 1.023781 1.194939 1.312873
55 1.457894 1.532131 1.484863 1.492200 1.672418 1.473258
55 1.414823 1.531662 1.535041 1.879459 1.394295 1.595368
55 1.514000 1.194125 1.400523 1.097924 0.875691 1.213360
55 0.906852 1.110170 0.961540 1.178710 1.106851 0.954007
55 0.934512 0.883859 0.955908 0.953592 0.918923 0.938946
55 0.952067 0.916639 0.814273 0.759291 1.022808 0.856541
55 0.883099 0.921450 0.815693 0.977572 1.001507 1.143075
55 1.176830 1.123886 1.254337 1.212528 1.198118 1.249295
55 1.234381 1.232388 1.265195 1.159514 1.343238 1.173555
55 1.409412 1.268106 1.309195 1.367946 1.383631 1.086802
55 1.243643 1.349766 0.996227 1.191345 0.836463 0.896131
55 0.903477 0.662407 0.640869 0.552162 0.698888 0.574322
55 0.569649 0.507013 0.482328 0.402631 0.444435 0.398576
55 0.434317 0.405426 0.378111 0.331790 0.282040 0.281854
55 0.374897 0.393586 0.329258 0.415716 0.435221 0.429734
55 0.490747 0.584942 0.698845 1.095378 1.162906 1.320094
55 1.721113 1.654762 1.659332 1.647325 1.875148 1.895468
55 1.748721 1.673088 1.232950 1.552382 1.480484 1.471551
55 1.541592 0.983961 1.225989 1.278973 1.137215 0.981904
55 1.195586 1.091680 0.931907 1.042766 1.082159 0.999844
55 1.083879 1.013867 0.960477 0.867347 0.945509 0.942421
55 0.978825 0.875476 0.921971 0.801253 0.829563 0.909813
55 0.845090 1.051853 1.046313 1.055295 1.087617 1.293832
55 1.048425 0.876139 1.170284 1.166727 1.137898 1.109161
55 1.203106 1.306316 1.234634 1.622231 1.181096 1.199615
55 1.002479 1.333256 1.040060 1.233249 1.264163 1.197798
55 1.490740 1.363936 1.358296 1.045719 1.201980 1.047708
55 0.969427 0.875672 0.646325 0.619985 0.651756 0.414989
55 0.620647 0.547243 0.497715 0.490854 0.410645 0.416331
55 0.444011 0.411136 0.418659 0.303465 0.280243 0.300943
55 0.312753 0.377087 0.415309 0.400071 0.446563 0.417211
55 0.482627 0.599347 0.683640 0.855207 1.058501 1.527558
55 1.598263 1.761698 1.386846 1.304496 1.520294 1.645787
55 1.679790 1.746725 1.603968 1.800633 1.466609 1.324740
55 1.171901 1.234779 1.331475 1.134682 1.304650 1.305568
55 0.839345 1.154054 0.800981 1.051529 1.122487 1.005796
55 0.875117 0.947100 0.973835 0.963217 0.934354 0.914301
55 0.919213 0.778631 0.860306 1.021432 0.865382 0.879137
55 1.046583 0.723333 1.118138 0.961768 1.069210 1.086673
55 1.203671 1.093399 1.069618 1.324855 0.916299 1.232009
55 1.088753 1.185336 1.561463 1.301110 1.332083 1.070825
55 1.205224 1.326112 1.348963 1.383987 1.301122 1.357250
55 1.327544 1.013581 1.204441 1.234999 1.143794 0.961877
55 0.827494 0.705153 0.701615 0.720819 0.482892 0.527756
55 0.477625 0.559264 0.472285 0.457661 0.447863 0.450644
55 0.384304 0.253052 0.347666 0.319148 0.293414 0.282865
55 0.360451 0.394458 0.381199 0.392745 0.365008 0.419587
55 0.422479 0.662891 0.739873 1.038360 1.031284 1.271895
55 1.450726 1.291549 1.618424 1.562667 1.344125 1.406570
55 1.696819 1.722627 1.539058 1.595477 1.533577 1.505908
55 1.589903 1.151020 1.387940 1.197786 1.166153 1.109420
55 1.058734 0.932014 1.051062 1.179862 0.994387 0.999176
55 0.934566 0.994176 1.046617 0.944773 0.910425 0.961739
55 0.817380 0.908034 0.953966 1.007393 0.891866 1.045783
55 1.042446 0.875272 0.878206 0.995333 1.160206 1.068525
55 1.033928 1.297851 1.180335 0.900534 1.238059 1.293449
55 1.286762 1.340750 1.291254 1.134632 1.258159 1.179745
55 1.178744 1.136281 1.361695 1.316333 1.241739 1.205584
55 1.266943 1.374456 0.959494 1.190151 1.021141 0.810078
55 1.058765

[CURVES]
;ID         X-Value      Y-Value     

[CONTROLS]

[RULES]

[ENERGY]
GLOBAL EFFICIENCY      75.0000
GLOBAL PRICE           0.0000
DEMAND CHARGE          0.0000

[EMITTERS]
;ID        Flow coefficient

[QUALITY]

[SOURCES]
;Node      Type       Quality    Pattern   

[REACTIONS]
;Type           Pipe/Tank               Coefficient

 ORDER BULK 1
 ORDER TANK 1
 ORDER WALL 1
 GLOBAL BULK 0.0000    
 GLOBAL WALL 0.0000    
 LIMITING POTENTIAL 0.0000    
 ROUGHNESS CORRELATION 0.0000    

[MIXING]
;Tank ID             Model Fraction

[TIMES]
DURATION             168:00:00
HYDRAULIC TIMESTEP   00:15:00
QUALITY TIMESTEP     00:05:00
PATTERN TIMESTEP     00:15:00
PATTERN START        00:00:00
REPORT TIMESTEP      00:15:00
REPORT START         00:00:00
START CLOCKTIME      00:00:00 AM
RULE TIMESTEP        00:06:00
STATISTIC            NONE      

[REPORT]
 Status             	No
 Summary            	No
 Page               	0
 Nodes					ALL
 Links					ALL
 Flow					Yes
 Headloss				No
 Velocity 				No
 Demand 				Yes
 Head 					Yes
 Pressure 				Yes
 Quality 				No
 State 					Yes

[OPTIONS]
UNITS                CMH                 
HEADLOSS             H-W                 
SPECIFIC GRAVITY     1
VISCOSITY            1
TRIALS               40
ACCURACY             0.001
CHECKFREQ            2
MAXCHECK             10
UNBALANCED           CONTINUE 10
DEMAND MULTIPLIER    1
DEMAND MODEL         PDA
MINIMUM PRESSURE     0.00
REQUIRED PRESSURE    0.10
PRESSURE EXPONENT    0.5
EMITTER EXPONENT     0.5
QUALITY              NONE                
DIFFUSIVITY          1
TOLERANCE            0.01

[COORDINATES]
;Node      X-Coord    Y-Coord   
1                4000.000000000       7000.000000000
2                5000.000000000       7000.000000000
3                4000.000000000       6000.000000000
4                5000.000000000       6000.000000000
5                4000.000000000       5000.000000000
6                5000.000000000       5000.000000000
7                6000.000000000       7000.000000000

[VERTICES]
;Link      X-Coord    Y-Coord   

[LABELS]

[BACKDROP]
DIMENSIONS    2900.000    4900.000    5100.000    7100.000
UNITS    METERS
OFFSET    0.00    0.00

[END]
