; Filename: D:/OneDrive/IHE_HI/015. Thesis/Github_repositories\Msc-Thesis/INP_FILES/Twoloops_Base_WNTR.inp
; WNTR: 0.3.1
; Created: 2023-03-01 15:16:38
[TITLE]

[JUNCTIONS]
;ID                      Elevation       Demand Pattern                 
 1                                160             100 12                         ;
 2                                150             100 12                         ;
 3                                150             270 12                         ;
 4                                155             120 12                         ;
 5                                160             200 12                         ;
 6                                165             330 12                         ;

[RESERVOIRS]
;ID                                   Head                  Pattern
 7                                210                            ;

[TANKS]
;ID                              Elevation           Init Level            Min Level            Max Level             Diameter           Min Volume Volume Curve         Overflow            

[PIPES]
;ID                   Node1                Node2                              Length             Diameter            Roughness           Minor Loss               Status
 1                    2                    1                               1000             200             130               0                 Open   ;
 2                    1                    3                               1000             150             130               0                 Open   ;
 3                    2                    4                               1000             450             130               0                 Open   ;
 4                    4                    3                               1000             150             130               0                 Open   ;
 5                    5                    3                               1000             150             130               0                 Open   ;
 6                    4                    6                               1000             400             130               0                 Open   ;
 7                    6                    5                               1000             250             130               0                 Open   ;
 8                    7                    2                               1000             450             130               0                 Open   ;

[PUMPS]
;ID                   Node1                Node2                Properties          

[VALVES]
;ID                   Node1                Node2                            Diameter Type              Setting           Minor Loss

[TAGS]
;type      name       tag       

[DEMANDS]
;ID        Demand     Pattern   

[STATUS]
;ID        Setting   
[PATTERNS]
;ID        Multipliers

12 0.931753 0.868766 0.842738 0.829523 0.792415 0.721867
12 0.724441 0.685695 0.665286 0.652774 0.631847 0.632122
12 0.609132 0.588561 0.580632 0.568813 0.572161 0.544701
12 0.542444 0.522714 0.498199 0.525339 0.521188 0.498674
12 0.522698 0.479294 0.487535 0.478466 0.487640 0.479345
12 0.459214 0.452897 0.432897 0.414337 0.418639 0.412396
12 0.409842 0.397592 0.373208 0.361701 0.344518 0.330745
12 0.318498 0.332707 0.308923 0.303047 0.293828 0.304025
12 0.290317 0.302151 0.303812 0.319712 0.323345 0.329194
12 0.348006 0.362427 0.370613 0.382345 0.383719 0.392590
12 0.394620 0.399136 0.395669 0.387585 0.402053 0.397444
12 0.389321 0.410627 0.407294 0.427661 0.451435 0.470119
12 0.511394 0.525489 0.589289 0.627620 0.680945 0.744867
12 0.811940 0.883294 0.926274 1.032484 1.088830 1.105998
12 1.235718 1.302348 1.336057 1.346787 1.364124 1.462575
12 1.455105 1.534400 1.531370 1.579002 1.580270 1.608548
12 1.600336 1.668351 1.622924 1.637309 1.688670 1.584559
12 1.586373 1.656987 1.583872 1.680221 1.598665 1.582121
12 1.661534 1.640997 1.646807 1.609686 1.547174 1.627053
12 1.551272 1.576444 1.572061 1.528657 1.541897 1.539971
12 1.511293 1.454192 1.481590 1.496528 1.422096 1.421459
12 1.396481 1.442727 1.391877 1.366302 1.316321 1.332675
12 1.282467 1.282444 1.247331 1.262208 1.241721 1.205022
12 1.202353 1.150429 1.125230 1.154051 1.132482 1.128185
12 1.152429 1.107187 1.054458 1.086000 1.023647 1.031643
12 1.030730 1.059104 1.001784 0.994230 1.004106 0.989123
12 1.022533 0.977241 0.975749 0.990564 0.990541 1.040666
12 1.022595 1.006643 0.981134 1.022983 0.985155 0.972350
12 1.023761 1.001360 1.006878 0.987351 0.989249 0.950825
12 0.933977 0.956700 0.918996 0.911710 0.907106 0.907529
12 0.893628 0.869425 0.877801 0.846287 0.894284 0.853653
12 0.862170 0.883316 0.871049 0.914160 0.867334 0.899551
12 0.899293 0.884826 0.922226 0.916812 0.942116 0.951489
12 0.985596 0.979159 0.955715 0.967462 1.003047 1.003768
12 1.012803 0.976416 1.017430 1.011488 1.041009 1.041601
12 1.071115 1.066898 1.085081 1.066266 1.063779 1.083196
12 1.099626 1.116216 1.166037 1.122513 1.109722 1.131443
12 1.136777 1.166776 1.128182 1.174145 1.185200 1.196134
12 1.185664 1.203933 1.184835 1.217378 1.225921 1.259435
12 1.229274 1.287037 1.313632 1.229931 1.300728 1.312964
12 1.283427 1.293012 1.302162 1.299155 1.299356 1.263453
12 1.336708 1.333741 1.283071 1.264741 1.315262 1.285684
12 1.303691 1.291512 1.318014 1.318620 1.282364 1.265994
12 1.261503 1.319234 1.272639 1.290358 1.287478 1.300497
12 1.249657 1.302219 1.307327 1.291583 1.275887 1.279912
12 1.280053 1.191364 1.300498 1.250252 1.212332 1.205352
12 1.211850 1.181012 1.118726 1.194283 1.123748 1.126497
12 1.065133 1.086924 1.033125 1.010352 0.947117 0.957262
12 0.912417 0.884309 0.816176 0.786302 0.799082 0.720648
12 0.708999 0.703415 0.667965 0.655006 0.624999 0.618803
12 0.584322 0.606603 0.574163 0.557356 0.562964 0.541906
12 0.524683 0.517475 0.532290 0.516905 0.510960 0.517098
12 0.488732 0.486439 0.483339 0.481170 0.472737 0.462989
12 0.457231 0.448532 0.434380 0.424414 0.423887 0.403785
12 0.390741 0.385830 0.374935 0.380325 0.346938 0.346835
12 0.334678 0.312599 0.316931 0.298486 0.285351 0.303001
12 0.289465 0.306179 0.305120 0.327787 0.333664 0.334098
12 0.343412 0.350623 0.366857 0.377915 0.385815 0.396698
12 0.404628 0.404839 0.396063 0.389902 0.411565 0.395139
12 0.397192 0.402621 0.399530 0.423133 0.440679 0.474727
12 0.506985 0.538836 0.595480 0.640662 0.692798 0.756016
12 0.813916 0.875335 0.943296 0.991330 1.084834 1.118393
12 1.220199 1.248510 1.306576 1.365000 1.411911 1.387374
12 1.460864 1.524148 1.473225 1.560746 1.498303 1.553697
12 1.601236 1.557443 1.586908 1.576438 1.681021 1.633803
12 1.646202 1.618234 1.610462 1.565062 1.602592 1.581671
12 1.627454 1.630177 1.634076 1.607995 1.555441 1.532208
12 1.583546 1.562599 1.488261 1.544313 1.548003 1.513864
12 1.494448 1.462868 1.430196 1.481188 1.433213 1.419069
12 1.457560 1.410317 1.383596 1.359108 1.377549 1.363800
12 1.324167 1.296552 1.210471 1.248441 1.224371 1.212337
12 1.215404 1.111696 1.146616 1.150173 1.118180 1.082467
12 1.119117 1.092678 1.053206 1.068957 1.068590 1.041366
12 1.048665 1.025617 1.008893 0.987497 1.004358 1.006320
12 1.017517 0.996514 1.007804 0.980036 0.984847 0.999786
12 0.982372 1.021369 1.015101 1.011609 1.012078 1.043905
12 0.990623 0.951241 0.992610 0.980104 0.962515 0.944509
12 0.945327 0.947257 0.924611 0.969064 0.897861 0.892821
12 0.858805 0.898506 0.853386 0.876115 0.878370 0.869392
12 0.912304 0.899945 0.907452 0.871143 0.910453 0.903648
12 0.913885 0.924645 0.896086 0.912161 0.943800 0.886355
12 0.973316 0.964217 0.961944 0.976403 0.961245 0.983849
12 1.022006 1.035243 1.072816 1.025124 1.021578 1.032917
12 1.030546 1.058521 1.076458 1.075569 1.108033 1.087037
12 1.092356 1.094937 1.079198 1.088236 1.104672 1.168982
12 1.167960 1.187427 1.133038 1.126491 1.165905 1.194792
12 1.211969 1.235044 1.226504 1.272362 1.233859 1.226232
12 1.216060 1.244707 1.281684 1.260244 1.313896 1.332018
12 1.238391 1.325891 1.247150 1.317433 1.339465 1.308969
12 1.273155 1.290265 1.297463 1.298205 1.296414 1.297804
12 1.305550 1.268395 1.293741 1.340040 1.291237 1.290460
12 1.330839 1.236614 1.334437 1.287097 1.307290 1.304373
12 1.324504 1.290378 1.276227 1.322769 1.223164 1.277943
12 1.235683 1.242094 1.301883 1.239467 1.233152 1.171564
12 1.182503 1.188414 1.174358 1.161077 1.126432 1.115608
12 1.089885 1.015931 1.028002 1.013527 0.978752 0.927822
12 0.885499 0.842592 0.824392 0.811932 0.734064 0.726540
12 0.694725 0.698574 0.659271 0.641363 0.627299 0.619728
12 0.595291 0.551363 0.581777 0.570004 0.553121 0.535087
12 0.542861 0.535832 0.520070 0.516312 0.502799 0.504379
12 0.484496 0.497773 0.477889 0.482551 0.459831 0.460165
12 0.456784 0.434567 0.441738 0.428157 0.406882 0.400395
12 0.404841 0.395209 0.375129 0.366847 0.353473 0.342657
12 0.338232 0.310562 0.316327 0.303389 0.300028 0.297561
12 0.297749 0.296001 0.310487 0.327859 0.326316 0.337146
12 0.343416 0.358504 0.373571 0.377232 0.385122 0.398649
12 0.392656 0.404058 0.408809 0.412365 0.399907 0.411623
12 0.410768 0.398755 0.404716 0.424611 0.454104 0.468231
12 0.493993 0.555522 0.587939 0.606802 0.697411 0.761429
12 0.820718 0.890238 0.947098 0.987469 1.070785 1.119477
12 1.177614 1.223073 1.317097 1.354297 1.381481 1.413766
12 1.466247 1.530109 1.463888 1.560424 1.551961 1.526350
12 1.537738 1.581410 1.625922 1.637019 1.596816 1.661577
12 1.674058 1.638349 1.602742 1.653722 1.636354 1.633995
12 1.578993 1.503449 1.654720 1.530099 1.573164 1.641806
12 1.569943 1.580999 1.496474 1.478893 1.506962 1.545068
12 1.489613 1.463255 1.478636 1.489400 1.400453 1.391208
12 1.386520 1.421729 1.379861 1.413050 1.361946 1.317530
12 1.332892 1.287049 1.245586 1.262296 1.210469 1.203035
12 1.224583 1.173759 1.141192 1.133374 1.151785 1.101725
12 1.091489 1.075570 1.078018 1.054079 1.017635 1.022780
12 1.012884 1.049478 1.033460 1.022813 0.995919 0.986069
12 0.989850 0.977801 1.048545 0.954439 1.011793 0.976255
12 1.001445 0.985027 0.982096 0.983053 1.040549 1.000680
12 0.984686 1.006113 0.988874 0.995226 0.937097 0.969219
12 0.968443 0.912469 0.942376 0.955820 0.915175 0.922115
12 0.912070 0.881359 0.889955 0.857914 0.875267 0.886597
12 0.894394 0.882830 0.896857 0.867233 0.888545 0.895117
12 0.933293 0.902111 0.903566 0.920361 0.910739 0.939681
12 0.937825 0.919500 0.961696 0.965942 0.949419 0.989453
12 1.029787 1.019569 1.030383 0.999098 1.045087 1.046749
12 1.063096 1.069133 1.039228 1.075415 1.067824 1.091059
12 1.080257 1.136895 1.096461 1.103264 1.133040 1.114784
12 1.137670 1.136465 1.196907 1.191091 1.180144 1.181289
12 1.222582 1.219493 1.231718 1.228865 1.197530 1.246232
12 1.244971 1.283587 1.301319 1.266166 1.301815 1.340401
12 1.282639 1.347211 1.283368 1.307539 1.307145 1.307573
12 1.284705 1.290115 1.286870 1.311475 1.310289 1.358567
12 1.335646 1.286559 1.308480 1.326485 1.302044 1.300204
12 1.304091 1.325930 1.281517 1.295080 1.315278 1.309975
12 1.306229 1.287726 1.318936 1.344327 1.294305 1.272488
12 1.289112 1.247705 1.232775 1.241388 1.164907 1.186813
12 1.191649 1.151719 1.142002 1.136908 1.089230 1.095006
12 1.068520 1.055057 1.050954 1.001641 0.967747 0.936482
12 0.904093 0.844343 0.824661 0.798843 0.742941 0.749004
12 0.726307 0.679092 0.663444 0.636086 0.638845 0.601219
12 0.597330 0.577046 0.576110 0.544766 0.570299 0.536394
12 0.539714 0.529538 0.517003 0.509352 0.521925 0.500866
12 0.502712 0.485740 0.480784 0.484800 0.481940 0.464028
12 0.444776 0.467459 0.433173 0.418127 0.443447 0.407789
12 0.388306 0.382948 0.378886 0.365286 0.345903 0.352822
12 0.326311 0.312626 0.318101 0.313852 0.296452 0.290980
12 0.306183 0.291017 0.301763 0.323396 0.326321 0.335376
12 0.350659 0.358250 0.360507 0.389745 0.398949 0.397083
12 0.400361 0.420839 0.399987 0.399362 0.403552 0.412454
12 0.415262 0.404757 0.417379 0.415442 0.442171 0.461029
12 0.489932 0.556916 0.575322 0.629570 0.698086 0.773152
12 0.824893 0.930995 0.946957 1.019459 1.084729 1.173806
12 1.212174 1.251853 1.280550 1.358259 1.433045 1.420611
12 1.482452 1.505155 1.551355 1.523823 1.642728 1.545556
12 1.588302 1.641039 1.628422 1.651212 1.611231 1.626018
12 1.628132 1.676488 1.644323 1.643120 1.590789 1.637255
12 1.607219 1.638084 1.651459 1.571336 1.561497 1.540102
12 1.555153 1.539689 1.553926 1.528977 1.512174 1.544277
12 1.471864 1.499765 1.460848 1.478975 1.482083 1.417083
12 1.421167 1.396245 1.351452 1.361784 1.344638 1.329343
12 1.294842 1.284042 1.234400 1.236440 1.241214 1.231662
12 1.182829 1.178604 1.165112 1.148608 1.140927 1.073528
12 1.098915 1.091855 1.052579 1.097833 1.054712 1.073814
12 1.015820 1.005433 1.021493 0.976999 1.010413 1.004374
12 1.020313 1.012818 0.990329 0.977380 1.034771 0.986124
12 0.982555 0.983081 1.028260 0.995554 0.990111 1.006112
12 0.995861 0.981557 1.003578 1.002001 0.991748 0.978146
12 0.961384 0.910311 0.965185 0.930043 0.926581 0.927442
12 0.925800 0.901491 0.896994 0.875057 0.883824 0.866845
12 0.868949 0.866626 0.881367 0.905400 0.946822 0.898163
12 0.875729 0.928913 0.907184 0.907814 0.931688 0.912846
12 0.948926 0.951981 0.964719 0.979531 0.982787 0.991107
12 1.005686 1.017431 0.996925 0.997281 1.033937 1.013745
12 1.053807 1.080076 1.081252 1.053743 1.065604 1.099324
12 1.091171 1.100800 1.128945 1.101279 1.122274 1.121096
12 1.123478 1.135838 1.179825 1.173877 1.160727 1.185102
12 1.160669 1.191948 1.272001 1.227290 1.257513 1.247406
12 1.267135 1.284048 1.247328 1.282255 1.330459 1.274816
12 1.285273 1.295347 1.312657 1.320659 1.340578 1.320332
12 1.304974 1.338429 1.322656 1.263978 1.367468 1.346704
12 1.295626 1.309637 1.334468 1.296070 1.320255 1.330781
12 1.276306 1.287623 1.327659 1.315585 1.327093 1.298414
12 1.292486 1.245464 1.264118 1.290517 1.305042 1.290994
12 1.266661 1.254450 1.256976 1.242514 1.262865 1.218409
12 1.164450 1.153632 1.201505 1.120062 1.143458 1.098047
12 1.076415 1.051692 1.052335 0.994347 0.966695 0.906009
12 0.903720 0.871022 0.830512 0.816137 0.764726 0.740660
12 0.734371 0.666456 0.660584 0.665925 0.641828 0.622591
12 0.609992 0.590973 0.594304 0.569312 0.558225 0.548684
12 0.541148 0.519492 0.533098 0.517207 0.530999 0.505421
12 0.504209 0.496088 0.480995 0.489794 0.491163 0.465523
12 0.455044 0.446305 0.424042 0.429895 0.423689 0.419783
12 0.407680 0.385021 0.374039 0.372081 0.350676 0.336940
12 0.338934 0.326858 0.312221 0.302094 0.289253 0.302901
12 0.294622 0.291531 0.319158 0.321369 0.319241 0.328967
12 0.354267 0.353038 0.379715 0.384731 0.392821 0.398660
12 0.401532 0.409107 0.398557 0.402136 0.406656 0.405175
12 0.392823 0.402790 0.416918 0.423731 0.460740 0.465222
12 0.498378 0.547087 0.588449 0.634486 0.682530 0.758135
12 0.834011 0.890757 0.933614 1.049440 1.047572 1.104938
12 1.223053 1.260438 1.290939 1.321953 1.458679 1.435722
12 1.482607 1.507304 1.538279 1.565480 1.592071 1.574231
12 1.590667 1.554727 1.593552 1.633057 1.661391 1.647964
12 1.616643 1.584408 1.531833 1.654606 1.593004 1.591726
12 1.604210 1.549000 1.576406 1.645020 1.590202 1.578444
12 1.510269 1.621164 1.498930 1.592365 1.458757 1.554583
12 1.548542 1.462370 1.485253 1.473817 1.418657 1.384405
12 1.371614 1.406324 1.371073 1.339962 1.362757 1.331853
12 1.280358 1.250838 1.276619 1.231970 1.230000 1.248212
12 1.204890 1.155858 1.163549 1.122201 1.165030 1.101524
12 1.104560 1.093348 1.077488 1.020659 1.020902 1.031835
12 1.038733 1.021193 0.997465 0.983676 0.998007 0.993032
12 1.010257 0.992295 1.010706 0.987430 0.995385 0.995023
12 0.987836 1.017447 0.989419 0.995499 1.003795 0.977315
12 0.993501 0.980896 0.980994 0.979921 0.957022 0.959129
12 0.978666 0.943347 0.955397 0.930866 0.929621 0.893160
12 0.901888 0.896404 0.878352 0.871096 0.856914 0.908300
12 0.864497 0.906154 0.875860 0.871497 0.901441 0.883477
12 0.910232 0.899961 0.921444 0.902155 0.943221 0.945208
12 0.927347 1.004076 0.973225 1.016648 1.012874 0.987041
12 0.991755 1.000906 0.980668 1.012355 1.040322 1.075502
12 1.035707 1.078874 1.041518 1.063685 1.074335 1.100274
12 1.110061 1.129137 1.132826 1.128926 1.140185 1.175524
12 1.135691 1.173554 1.121958 1.182308 1.170083 1.190666
12 1.224962 1.213673 1.241161 1.265749 1.249022 1.278295
12 1.250154 1.267030 1.262175 1.309813 1.300414 1.282285
12 1.304021 1.330519 1.304606 1.282135 1.310886 1.255490
12 1.326685 1.294550 1.292046 1.325774 1.266156 1.351313
12 1.287514 1.286211 1.326586 1.318983 1.365041 1.296518
12 1.299610 1.264763 1.294977 1.284762 1.291323 1.256451
12 1.343176 1.260565 1.221263 1.258658 1.268364 1.248054
12 1.297813 1.257829 1.252175 1.255718 1.235386 1.238627
12 1.173373 1.170798 1.181616 1.088787 1.095262 1.115034
12 1.069708 1.074264 1.043866 0.974278 0.975207 0.957086
12 0.902654 0.845019 0.841096 0.804030 0.772173 0.746799
12 0.668352 0.699895 0.690770 0.653111 0.632461 0.622812
12 0.604059 0.594786 0.575540 0.556378 0.544401 0.536026
12 0.524265 0.520442 0.543499 0.526381 0.505926 0.502235
12 0.501126 0.487181 0.487747 0.487733 0.472797 0.468790
12 0.465912 0.447051 0.443233 0.428759 0.421332 0.408441
12 0.395769 0.389604 0.380383 0.364966 0.355407 0.335389
12 0.321812 0.322884 0.316398 0.306030 0.309505 0.304805
12 0.316083 0.302223 0.303172 0.312561 0.322988 0.340365
12 0.333173 0.368825 0.368349 0.378170 0.380260 0.394556
12 0.400106 0.401047 0.404938 0.396712 0.393453 0.405058
12 0.403236 0.408466 0.423607 0.418480 0.437337 0.480700
12 0.485171 0.524685 0.594147 0.639367 0.694473 0.752210
12 0.817542 0.880677 0.974083 1.006135 1.075301 1.182008
12 1.200660 1.310783 1.302544 1.388616 1.347826 1.436769
12 1.420447 1.523077 1.488025 1.557540 1.560231 1.549393
12 1.548180 1.594353 1.675170 1.614716 1.657231 1.626596
12 1.656275 1.566081 1.608848 1.648061 1.606737 1.603355
12 1.586225 1.630441 1.596958 1.582428 1.594537 1.585621
12 1.566262 1.599549 1.540972 1.541939 1.503603 1.516622
12 1.547633 1.467757 1.439414 1.486917 1.437838 1.428463
12 1.407470 1.393472 1.396773 1.332513 1.309854 1.320696
12 1.258233 1.246433 1.310565 1.264226 1.227318 1.240024
12 1.168078 1.168717 1.174284 1.164376 1.140298 1.057416
12 1.078702 1.097029 1.066421 1.116237 1.070797 1.052878
12 1.009082 1.023292 1.021837 1.033742 1.023817 1.023134
12 0.981522 1.027023 0.971096 0.988604 1.009127 0.998994
12 0.983347 0.988373 0.974640 1.016697 1.030609 1.001334
12 0.991993 0.965751 1.006726 1.024487 0.937618 0.942879
12 0.940742 0.933182 0.938251 0.954305 0.933913 0.916784
12 0.886969 0.873991 0.875077 0.913093 0.882149 0.874029
12 0.878403 0.896948 0.860912 0.911888 0.893143 0.890901
12 0.907971 0.909949 0.906392 0.915319 0.911672 0.948361
12 0.934671 0.935428 0.966018 0.997957 0.980513 0.978733
12 1.008078 1.048133 0.988366 1.034490 1.039459 1.067895
12 1.072813 1.056213 1.032290 1.093668 1.066148 1.071473
12 1.125264 1.087634 1.146927 1.131008 1.138573 1.146329
12 1.109817 1.114590 1.169071 1.185983 1.183454 1.171043
12 1.200454 1.207705 1.196223 1.254443 1.196488 1.263749
12 1.268045 1.292829 1.249862 1.285651 1.345737 1.312580
12 1.302615 1.317422 1.307882 1.364206 1.333157 1.305034
12 1.313189 1.295347 1.335848 1.266312 1.259919 1.338608
12 1.355981 1.311987 1.302965 1.317645 1.284408 1.306477
12 1.303761 1.319656 1.263014 1.290352 1.325039 1.284275
12 1.274173 1.350306 1.294758 1.274375 1.240414 1.296057
12 1.287675 1.253769 1.223950 1.239964 1.207825 1.191961
12 1.197523 1.158869 1.171837 1.160873 1.107325 1.073762
12 1.113808 1.034690 1.013683 1.002450 0.978936 0.929832
12 0.908294 0.854956 0.810504 0.816588 0.801901 0.761231
12 0.712948 0.712997 0.671405 0.641277 0.635909 0.613097
12 0.588203 0.576584 0.584755 0.544175 0.562273 0.529120
12 0.516199 0.512241 0.545657 0.516525 0.513217 0.520555
12 0.509342 0.479915 0.495555 0.482033 0.469902 0.465887
12 0.469513 0.441532 0.444256 0.431345 0.406420 0.404514
12 0.401546 0.398329 0.383654 0.368247 0.346159 0.352676
12 0.331170 0.313768 0.310962 0.311205 0.301426 0.304680
12 0.306622 0.305873 0.304046 0.318117 0.326978 0.349693
12 0.336876 0.358379 0.365797 0.382593 0.369703 0.404277
12 0.400110 0.387195 0.399305 0.406335 0.387879 0.400690
12 0.393930 0.402337 0.415043 0.428784 0.440758 0.471468
12 0.508180 0.535790 0.601322 0.654945 0.687073 0.743978
12 0.789837 0.880069 0.941480 1.030014 1.046211 1.134727
12 1.223250 1.236441 1.285382 1.312535 1.467036 1.410955
12 1.428783 1.473701 1.501401 1.540406 1.594988 1.576670
12 1.570470 1.564060 1.619523 1.625632 1.677206 1.631465
12 1.624511 1.591316 1.612002 1.603167 1.600066 1.575318
12 1.617227 1.589263 1.581150 1.526837 1.589833 1.582449
12 1.533457 1.582268 1.500721 1.532740 1.514928 1.472249
12 1.505691 1.537516 1.474797 1.444354 1.455022 1.428740
12 1.409523 1.379430 1.412470 1.367627 1.322771 1.315608
12 1.280737 1.266036 1.247208 1.217107 1.246648 1.203020
12 1.206125 1.160378 1.158422 1.127729 1.144965 1.108501
12 1.083921 1.050981 1.079989 1.047219 1.050984 1.031015
12 1.051836 1.035159 1.026027 0.998482 1.015470 1.036804
12 0.983356 1.002256 0.965727 1.027267 0.992545 1.017681
12 0.968953 1.041010 0.998606 1.016973 1.008297 0.998223
12 1.033716 0.962254 0.994576 0.998966 0.972001 0.961092
12 0.950983 0.920660 0.934716 0.933939 0.916703 0.902271
12 0.891185 0.889016 0.911616 0.848710 0.883947 0.876130
12 0.907313 0.883375 0.910384 0.849125 0.898540 0.899784
12 0.925030 0.876251 0.909845 0.921184 0.918594 0.958848
12 0.938324 0.992476 0.983124 0.990602 0.992441 0.969705
12 0.991378 1.020607 1.031719 1.053483 1.025535 1.025696
12 1.070040 1.043005 1.086940 1.102131 1.094151 1.084342
12 1.100904 1.120965 1.115854 1.172856 1.108936 1.116480
12 1.124997 1.142021 1.113325 1.157894 1.166065 1.192475
12 1.210027 1.179684 1.241523 1.273827 1.234214 1.288371
12 1.263380 1.317642 1.304009 1.242918 1.290213 1.322743
12 1.300794 1.302406 1.338788 1.288384 1.307894 1.315734
12 1.297873 1.305026 1.324505 1.314234 1.280642 1.271941
12 1.279483 1.299846 1.295875 1.278909 1.285681 1.262435
12 1.313634 1.302280 1.270789 1.304317 1.338008 1.282599
12 1.334194 1.288929 1.298890 1.291824 1.319857 1.281471
12 1.240915 1.228235 1.213170 1.198097 1.229493 1.191565
12 1.198061 1.167096 1.148109 1.135897 1.142086 1.124487
12 1.088100 1.033645 1.040465 1.011950 0.972653 0.923340
12 0.931753

[CURVES]
;ID         X-Value      Y-Value     

[CONTROLS]

[RULES]

[ENERGY]
GLOBAL EFFICIENCY      75.0000
GLOBAL PRICE           0.0000
DEMAND CHARGE          0.0000

[EMITTERS]
;ID        Flow coefficient

[QUALITY]

[SOURCES]
;Node      Type       Quality    Pattern   

[REACTIONS]
;Type           Pipe/Tank               Coefficient

 ORDER BULK 1
 ORDER TANK 1
 ORDER WALL 1
 GLOBAL BULK 0.0000    
 GLOBAL WALL 0.0000    
 LIMITING POTENTIAL 0.0000    
 ROUGHNESS CORRELATION 0.0000    

[MIXING]
;Tank ID             Model Fraction

[TIMES]
DURATION             168:00:00
HYDRAULIC TIMESTEP   00:05:00
QUALITY TIMESTEP     00:05:00
PATTERN TIMESTEP     00:05:00
PATTERN START        00:00:00
REPORT TIMESTEP      00:05:00
REPORT START         00:00:00
START CLOCKTIME      00:00:00 AM
RULE TIMESTEP        00:06:00
STATISTIC            NONE      

[REPORT]
 Status             	No
 Summary            	No
 Page               	0
 Nodes					ALL
 Links					ALL
 Flow					Yes
 Headloss				No
 Velocity 				No
 Demand 				Yes
 Head 					Yes
 Pressure 				Yes
 Quality 				No
 State 					Yes

[OPTIONS]
UNITS                CMH                 
HEADLOSS             H-W                 
SPECIFIC GRAVITY     1
VISCOSITY            1
TRIALS               40
ACCURACY             0.001
CHECKFREQ            2
MAXCHECK             10
UNBALANCED           CONTINUE 10
DEMAND MULTIPLIER    1
DEMAND MODEL         PDA
MINIMUM PRESSURE     0.00
REQUIRED PRESSURE    0.10
PRESSURE EXPONENT    0.5
EMITTER EXPONENT     0.5
QUALITY              NONE                
DIFFUSIVITY          1
TOLERANCE            0.01

[COORDINATES]
;Node      X-Coord    Y-Coord   
1                4000.000000000       7000.000000000
2                5000.000000000       7000.000000000
3                4000.000000000       6000.000000000
4                5000.000000000       6000.000000000
5                4000.000000000       5000.000000000
6                5000.000000000       5000.000000000
7                6000.000000000       7000.000000000

[VERTICES]
;Link      X-Coord    Y-Coord   

[LABELS]

[BACKDROP]
DIMENSIONS    2900.000    4900.000    5100.000    7100.000
UNITS    METERS
OFFSET    0.00    0.00

[END]
