; Filename: D:/OneDrive/IHE_HI/015. Thesis/Github_repositories\Msc-Thesis/INP_FILES/Twoloops_Base_WNTR.inp
; WNTR: 0.4.2
; Created: 2023-03-07 09:39:27
[TITLE]

[JUNCTIONS]
;ID                      Elevation       Demand Pattern                 
 1                                160             100 66                         ;
 2                                150             100 66                         ;
 3                                150             270 66                         ;
 4                                155             120 66                         ;
 5                                160             200 66                         ;
 6                                165             330 66                         ;

[RESERVOIRS]
;ID                                   Head                  Pattern
 7                                210                            ;

[TANKS]
;ID                              Elevation           Init Level            Min Level            Max Level             Diameter           Min Volume Volume Curve         Overflow            

[PIPES]
;ID                   Node1                Node2                              Length             Diameter            Roughness           Minor Loss               Status
 1                    2                    1                               1000             200             130               0                 Open   ;
 2                    1                    3                               1000             150             130               0                 Open   ;
 3                    2                    4                               1000             450             130               0                 Open   ;
 4                    4                    3                               1000             150             130               0                 Open   ;
 5                    5                    3                               1000             150             130               0                 Open   ;
 6                    4                    6                               1000             400             130               0                 Open   ;
 7                    6                    5                               1000             250             130               0                 Open   ;
 8                    7                    2                               1000             450             130               0                 Open   ;

[PUMPS]
;ID                   Node1                Node2                Properties          

[VALVES]
;ID                   Node1                Node2                            Diameter Type              Setting           Minor Loss

[TAGS]
;type      name       tag       

[DEMANDS]
;ID        Demand     Pattern   

[STATUS]
;ID        Setting   

[PATTERNS]
;ID        Multipliers

66 1.027012 0.889459 0.891277 0.936271 0.878011 0.678695
66 0.764968 0.679449 0.661157 0.668725 0.637292 0.685720
66 0.636530 0.592847 0.595960 0.580126 0.621964 0.537969
66 0.552569 0.495462 0.417779 0.545675 0.547760 0.476133
66 0.590790 0.436217 0.488872 0.473072 0.531153 0.520398
66 0.463470 0.463096 0.409421 0.363063 0.409839 0.416253
66 0.439369 0.425602 0.364467 0.355100 0.322379 0.301742
66 0.284739 0.370187 0.299379 0.295011 0.271174 0.317991
66 0.261266 0.298278 0.287191 0.327077 0.313333 0.305311
66 0.347417 0.371662 0.372090 0.389242 0.368927 0.383983
66 0.378481 0.390463 0.376046 0.346005 0.406318 0.387786
66 0.349957 0.421925 0.384712 0.428992 0.470900 0.473748
66 0.545576 0.485570 0.603401 0.601474 0.644737 0.718694
66 0.796667 0.886267 0.859974 1.087302 1.118971 1.000822
66 1.342872 1.445082 1.428376 1.332195 1.274568 1.553197
66 1.419619 1.644258 1.550427 1.669756 1.613820 1.675792
66 1.601344 1.840953 1.635251 1.676485 1.872546 1.452873
66 1.462293 1.751531 1.469709 1.868832 1.558660 1.510091
66 1.846137 1.782576 1.824693 1.695636 1.465824 1.806658
66 1.526192 1.651147 1.659749 1.514395 1.598019 1.623638
66 1.545171 1.356111 1.507945 1.612548 1.361996 1.408659
66 1.359699 1.597096 1.447277 1.399435 1.254563 1.375334
66 1.229869 1.284892 1.199132 1.312752 1.284189 1.189899
66 1.230697 1.073294 1.021454 1.184211 1.143769 1.170632
66 1.309717 1.168767 0.995632 1.157195 0.940641 1.002805
66 1.026504 1.164374 0.956343 0.944101 0.998163 0.949218
66 1.090131 0.912522 0.906993 0.964313 0.960644 1.156669
66 1.079762 1.011922 0.907183 1.073948 0.924826 0.879354
66 1.095042 1.020282 1.061503 1.006114 1.039249 0.913195
66 0.874795 0.995299 0.873973 0.873462 0.882085 0.908480
66 0.874512 0.795672 0.843460 0.728135 0.927418 0.768881
66 0.803749 0.886078 0.831817 0.996261 0.798268 0.913888
66 0.897172 0.821329 0.950881 0.907343 0.985079 0.997741
66 1.108216 1.055635 0.934388 0.953499 1.067804 1.042721
66 1.051211 0.878521 1.015944 0.966027 1.058396 1.035455
66 1.128564 1.087076 1.135482 1.036145 1.002337 1.056326
66 1.098502 1.141418 1.317270 1.119664 1.044832 1.107792
66 1.104861 1.200162 1.020567 1.178596 1.196295 1.212720
66 1.142658 1.186665 1.080630 1.180986 1.185552 1.290615
66 1.141980 1.346435 1.428005 1.070578 1.333714 1.365578
66 1.233707 1.261945 1.291752 1.275803 1.275115 1.131993
66 1.427046 1.418311 1.219419 1.150100 1.355958 1.240750
66 1.314763 1.266608 1.371955 1.372833 1.225713 1.157924
66 1.137773 1.366965 1.179648 1.250717 1.240858 1.296390
66 1.098627 1.316914 1.347995 1.298423 1.251938 1.287377
66 1.310458 0.981539 1.447372 1.279289 1.164248 1.176855
66 1.247399 1.172765 0.976649 1.336352 1.116278 1.194072
66 1.020285 1.184133 1.050773 1.046817 0.886451 1.025180
66 0.949667 0.951630 0.785027 0.763388 0.904677 0.673822
66 0.703200 0.750331 0.671874 0.677652 0.609899 0.632441
66 0.537287 0.665016 0.570083 0.534296 0.585177 0.526786
66 0.481528 0.474504 0.554144 0.511940 0.506850 0.549830
66 0.454927 0.464797 0.472091 0.483889 0.471539 0.454973
66 0.455538 0.445638 0.415351 0.403369 0.430831 0.381809
66 0.362965 0.378555 0.371377 0.429599 0.332059 0.366101
66 0.349462 0.289756 0.331411 0.276770 0.237266 0.313891
66 0.257859 0.314389 0.292424 0.359377 0.354608 0.324927
66 0.329041 0.324446 0.357065 0.371522 0.377311 0.400417
66 0.418513 0.413273 0.377622 0.355270 0.444365 0.378565
66 0.381441 0.389897 0.353657 0.410881 0.427874 0.492181
66 0.527938 0.538958 0.628164 0.653642 0.692145 0.763293
66 0.804570 0.854433 0.928061 0.922688 1.102986 1.050400
66 1.280797 1.229729 1.310453 1.405050 1.465717 1.252391
66 1.442653 1.603246 1.317846 1.596734 1.285952 1.456387
66 1.604945 1.397324 1.491186 1.433000 1.841949 1.649849
66 1.701606 1.596516 1.576067 1.408198 1.574365 1.508287
66 1.709814 1.739299 1.773769 1.688870 1.498894 1.427279
66 1.655288 1.595768 1.324548 1.577019 1.622443 1.519210
66 1.477794 1.390815 1.302368 1.551191 1.406466 1.399097
66 1.604017 1.467457 1.414154 1.370660 1.499474 1.499832
66 1.396669 1.341324 1.051692 1.257686 1.214788 1.219158
66 1.282902 0.918361 1.106998 1.168699 1.086564 0.987757
66 1.176469 1.110730 0.990624 1.089022 1.120415 1.041696
66 1.098242 1.030426 0.984778 0.917171 0.999171 1.018006
66 1.070067 0.989616 1.035212 0.922199 0.937865 0.993149
66 0.918870 1.070824 1.043049 1.028456 1.032520 1.165574
66 0.962491 0.819808 1.004433 0.977126 0.932316 0.887931
66 0.920196 0.957526 0.896433 1.102877 0.845103 0.849650
66 0.735219 0.911996 0.745801 0.847449 0.863761 0.831837
66 1.004288 0.952592 0.977429 0.824192 0.970744 0.930277
66 0.955541 0.980605 0.846322 0.888740 0.991819 0.737204
66 1.059097 0.995867 0.959304 0.989264 0.900595 0.963046
66 1.088023 1.113829 1.237489 1.020571 0.980674 1.000716
66 0.966290 1.053568 1.100990 1.073357 1.179357 1.071689
66 1.069424 1.056300 0.969914 0.982556 1.024629 1.257947
66 1.229594 1.282766 1.039992 0.987979 1.119113 1.207352
66 1.247874 1.311107 1.247306 1.400919 1.217305 1.157804
66 1.089124 1.177115 1.300213 1.191827 1.386385 1.441792
66 1.053563 1.393462 1.071704 1.348917 1.435552 1.314056
66 1.172832 1.244406 1.276987 1.283958 1.280568 1.289229
66 1.322202 1.174140 1.274863 1.458515 1.261206 1.255787
66 1.415116 1.036488 1.426842 1.237673 1.320107 1.311897
66 1.398017 1.269549 1.223594 1.423168 1.041046 1.279501
66 1.132977 1.184460 1.452913 1.236148 1.247529 1.041704
66 1.130012 1.202375 1.199179 1.203528 1.127015 1.150516
66 1.119292 0.900161 1.030283 1.059518 1.012989 0.907417
66 0.841995 0.784761 0.817893 0.865908 0.644607 0.697389
66 0.646106 0.730967 0.637099 0.623080 0.619097 0.636143
66 0.581165 0.444053 0.600538 0.584889 0.545803 0.499513
66 0.554239 0.547933 0.505264 0.509569 0.474207 0.498955
66 0.437983 0.510134 0.450290 0.489412 0.419919 0.443679
66 0.453749 0.389779 0.444782 0.418343 0.362810 0.368248
66 0.419364 0.416071 0.372152 0.375684 0.358199 0.349390
66 0.363675 0.281609 0.328994 0.296382 0.295973 0.292132
66 0.290996 0.273676 0.313890 0.359667 0.325216 0.337118
66 0.329056 0.355971 0.383924 0.368789 0.374540 0.408217
66 0.370624 0.410148 0.428606 0.445121 0.397734 0.444500
66 0.435745 0.374436 0.374403 0.416794 0.481573 0.466198
66 0.475974 0.605703 0.598002 0.518201 0.710599 0.784943
66 0.831777 0.914045 0.943270 0.907241 1.046790 1.054737
66 1.110457 1.127981 1.352535 1.362236 1.343997 1.357961
66 1.464185 1.627093 1.280500 1.595445 1.500585 1.346998
66 1.350950 1.493191 1.647243 1.675325 1.505132 1.760948
66 1.813033 1.676979 1.545189 1.762837 1.709416 1.717585
66 1.515973 1.232386 1.856346 1.377288 1.569785 1.865670
66 1.600878 1.669367 1.357397 1.315339 1.458277 1.644027
66 1.458450 1.392363 1.496130 1.584038 1.275426 1.287654
66 1.319858 1.513105 1.399211 1.586427 1.437062 1.314754
66 1.431568 1.303313 1.192150 1.313105 1.159182 1.181951
66 1.319619 1.166611 1.085302 1.101502 1.220984 1.064792
66 1.065955 1.042299 1.089871 1.029509 0.916593 0.967353
66 0.955118 1.125869 1.083046 1.058434 0.965413 0.937003
66 0.959399 0.914763 1.198178 0.819812 1.045651 0.899028
66 0.995162 0.925458 0.911029 0.914232 1.146403 0.992674
66 0.938744 1.039295 0.989488 1.037611 0.830643 0.986768
66 1.012658 0.818372 0.967493 1.049903 0.914359 0.966827
66 0.948281 0.843408 0.892076 0.774644 0.851351 0.900656
66 0.932645 0.884133 0.935051 0.808550 0.883112 0.896152
66 1.033171 0.890469 0.876239 0.921540 0.859574 0.950507
66 0.917133 0.817000 0.958311 0.947421 0.853289 0.985462
66 1.119148 1.051130 1.067756 0.916463 1.074709 1.056045
66 1.096488 1.096016 0.952071 1.072741 1.018521 1.087777
66 1.021029 1.224134 1.038963 1.042668 1.138103 1.041154
66 1.108434 1.078916 1.295467 1.246380 1.176070 1.153342
66 1.290328 1.248903 1.268163 1.226933 1.071989 1.237804
66 1.204767 1.332633 1.378756 1.215515 1.338060 1.475323
66 1.230558 1.478741 1.216579 1.309339 1.306271 1.308475
66 1.219035 1.243806 1.234616 1.337036 1.336065 1.532279
66 1.442583 1.246797 1.333821 1.404293 1.304433 1.294764
66 1.308122 1.393751 1.215163 1.269608 1.352057 1.334302
66 1.324917 1.258941 1.394430 1.509399 1.325612 1.257682
66 1.346696 1.206905 1.176479 1.243830 0.974551 1.102700
66 1.166596 1.055593 1.069753 1.106853 0.978208 1.068109
66 1.033831 1.056664 1.122092 1.011972 0.968970 0.942059
66 0.916372 0.791765 0.818969 0.813551 0.680115 0.787245
66 0.772435 0.653037 0.653791 0.601970 0.665283 0.562108
66 0.589321 0.546788 0.577869 0.483937 0.614514 0.504738
66 0.541651 0.522757 0.492997 0.481730 0.550710 0.484901
66 0.510847 0.462000 0.461870 0.498408 0.508352 0.459129
66 0.405719 0.521343 0.410523 0.378222 0.509072 0.397822
66 0.353225 0.367027 0.387180 0.369441 0.327920 0.390051
66 0.315991 0.289865 0.336091 0.338231 0.281670 0.265809
66 0.324731 0.253743 0.278996 0.341811 0.325236 0.330036
66 0.358030 0.354956 0.331667 0.418843 0.429847 0.401955
66 0.401444 0.477275 0.393315 0.393109 0.412313 0.447825
66 0.453722 0.398445 0.425053 0.380118 0.433842 0.437388
66 0.459727 0.611278 0.547532 0.609273 0.713298 0.831833
66 0.848478 1.077070 0.942709 1.035203 1.102568 1.272055
66 1.248695 1.243103 1.206345 1.378083 1.550251 1.385342
66 1.529008 1.527275 1.630368 1.449041 1.863654 1.423820
66 1.553209 1.731704 1.657243 1.732099 1.562790 1.618709
66 1.629327 1.829536 1.711512 1.720430 1.527154 1.730624
66 1.628874 1.770926 1.843299 1.542236 1.523119 1.458855
66 1.541717 1.504125 1.587205 1.515676 1.479127 1.640861
66 1.387454 1.538404 1.424975 1.542336 1.601947 1.391155
66 1.458445 1.411170 1.285576 1.381364 1.367829 1.362004
66 1.279367 1.291285 1.147407 1.209681 1.282163 1.296459
66 1.152603 1.185994 1.180982 1.162437 1.177549 0.952004
66 1.095659 1.107440 0.988113 1.204527 1.064903 1.171488
66 0.966865 0.949687 1.035176 0.875175 1.023389 1.010221
66 1.081253 1.054831 0.965314 0.911575 1.137561 0.938502
66 0.919601 0.917672 1.095686 0.964233 0.944651 1.014401
66 0.983444 0.941073 1.048305 1.064712 1.049246 1.022475
66 0.984423 0.809743 1.058731 0.946793 0.959985 0.988132
66 1.003201 0.923934 0.920232 0.843214 0.885577 0.821647
66 0.830865 0.819317 0.873091 0.961220 1.116220 0.908337
66 0.802914 0.997677 0.890713 0.871349 0.943370 0.843167
66 0.961536 0.946924 0.970402 1.001778 0.986761 0.992078
66 1.022745 1.042581 0.933927 0.909195 1.030109 0.924028
66 1.059332 1.139790 1.120166 0.986054 1.009639 1.120837
66 1.064686 1.079752 1.168900 1.034728 1.095037 1.066403
66 1.051663 1.076409 1.227141 1.177523 1.098404 1.168593
66 1.042674 1.138723 1.429294 1.220633 1.311921 1.242498
66 1.293422 1.334478 1.162792 1.279874 1.452638 1.212986
66 1.241090 1.271285 1.333731 1.361821 1.440001 1.359511
66 1.300109 1.437064 1.377757 1.147050 1.564782 1.484828
66 1.282506 1.339110 1.437770 1.282633 1.377277 1.417072
66 1.196982 1.240521 1.399730 1.351628 1.399316 1.288058
66 1.269943 1.089891 1.175158 1.294158 1.368559 1.331706
66 1.256889 1.233883 1.273285 1.248336 1.366382 1.229083
66 1.057800 1.063248 1.307765 1.039468 1.195118 1.080270
66 1.065414 1.043205 1.127614 0.982797 0.964761 0.820165
66 0.914882 0.898484 0.842372 0.882728 0.767255 0.753867
66 0.804690 0.602492 0.642352 0.721328 0.677216 0.647592
66 0.639967 0.602495 0.650645 0.582119 0.566221 0.553901
66 0.547386 0.482574 0.557374 0.513148 0.587004 0.503124
66 0.516837 0.503392 0.462713 0.518383 0.545244 0.465110
66 0.446791 0.436730 0.374002 0.425292 0.430038 0.445800
66 0.430722 0.375318 0.367792 0.396620 0.347014 0.326523
66 0.366485 0.346793 0.312573 0.291203 0.252872 0.313493
66 0.278487 0.255796 0.348574 0.333703 0.296915 0.304400
66 0.372464 0.334108 0.408499 0.398788 0.405334 0.408262
66 0.406126 0.430347 0.387599 0.404206 0.424731 0.418710
66 0.363969 0.390574 0.423210 0.413272 0.508118 0.454161
66 0.493511 0.571961 0.600043 0.628940 0.651074 0.771768
66 0.884949 0.916119 0.889333 1.155128 0.953940 0.996582
66 1.292213 1.277440 1.247904 1.232860 1.652787 1.445785
66 1.529625 1.535871 1.578065 1.615668 1.661025 1.538522
66 1.562670 1.386459 1.517761 1.659479 1.763430 1.706495
66 1.583369 1.461212 1.261553 1.766371 1.536013 1.548508
66 1.616841 1.414589 1.543089 1.836971 1.637940 1.612225
66 1.362183 1.830027 1.367222 1.769228 1.265459 1.682085
66 1.694167 1.388822 1.522595 1.521706 1.348241 1.260442
66 1.260235 1.451486 1.364059 1.294075 1.440305 1.372045
66 1.221432 1.158468 1.316285 1.191801 1.237307 1.362657
66 1.240843 1.095009 1.174729 1.056812 1.273965 1.063987
66 1.118240 1.113412 1.087751 0.895828 0.929664 1.003575
66 1.058515 1.012728 0.939063 0.901886 0.973767 0.964856
66 1.041027 0.972739 1.046820 0.951775 0.980020 0.974098
66 0.940728 1.055138 0.940320 0.964013 0.999384 0.899211
66 0.974005 0.938429 0.957969 0.976394 0.910343 0.946408
66 1.053551 0.941886 1.019578 0.950085 0.972143 0.851004
66 0.907553 0.903587 0.845665 0.827371 0.777938 0.987467
66 0.813058 0.977428 0.851061 0.825605 0.934697 0.849590
66 0.940929 0.881870 0.947752 0.848712 0.989500 0.972614
66 0.875218 1.155305 1.004428 1.150244 1.107110 0.975816
66 0.967018 0.976479 0.868898 0.969492 1.055650 1.171055
66 0.986931 1.134982 0.961231 1.025821 1.044563 1.124639
66 1.140243 1.193103 1.184424 1.145317 1.166684 1.284116
66 1.100516 1.227273 0.995671 1.211250 1.135825 1.190850
66 1.299848 1.225623 1.305934 1.374470 1.277956 1.366056
66 1.225497 1.266406 1.222179 1.390105 1.332458 1.242860
66 1.316086 1.411972 1.301530 1.207723 1.321234 1.100142
66 1.386953 1.261546 1.255319 1.394234 1.159534 1.503264
66 1.250055 1.245403 1.406244 1.374284 1.556420 1.280018
66 1.290198 1.149081 1.269000 1.228336 1.256238 1.120210
66 1.472703 1.150298 1.003739 1.166724 1.221849 1.159946
66 1.381498 1.247397 1.254082 1.301152 1.256466 1.309956
66 1.093490 1.131910 1.228211 0.914371 1.002335 1.148219
66 1.038586 1.133493 1.093740 0.902522 0.998810 1.024474
66 0.910615 0.794473 0.884708 0.834299 0.797043 0.778426
66 0.540615 0.736248 0.763095 0.670074 0.639746 0.648480
66 0.616235 0.617747 0.575591 0.530385 0.510923 0.503269
66 0.479855 0.486373 0.598980 0.549843 0.486713 0.490378
66 0.504502 0.467764 0.489720 0.510141 0.471783 0.478178
66 0.490262 0.439711 0.450764 0.420751 0.420610 0.400431
66 0.383076 0.393651 0.393168 0.368160 0.365937 0.320317
66 0.297996 0.330897 0.329279 0.306945 0.333881 0.321109
66 0.364334 0.298567 0.284633 0.298472 0.311904 0.349995
66 0.288086 0.397254 0.363035 0.372542 0.355091 0.391845
66 0.400424 0.398105 0.413120 0.382509 0.371920 0.418240
66 0.405618 0.413280 0.449965 0.392268 0.414504 0.516071
66 0.440685 0.482355 0.622833 0.648461 0.698849 0.748065
66 0.819075 0.875801 1.051211 0.981907 1.064856 1.304862
66 1.202641 1.478823 1.294322 1.499512 1.209375 1.449974
66 1.280988 1.598966 1.377046 1.583909 1.533663 1.439169
66 1.392722 1.544961 1.844235 1.586115 1.746791 1.621023
66 1.741900 1.387905 1.569611 1.740192 1.590947 1.595023
66 1.544901 1.740354 1.625296 1.586605 1.655278 1.640933
66 1.586156 1.743566 1.535391 1.567524 1.444843 1.530241
66 1.690531 1.410370 1.339240 1.574104 1.424966 1.436676
66 1.403657 1.400077 1.466861 1.264279 1.228695 1.327418
66 1.132930 1.140848 1.452067 1.320826 1.226577 1.329908
66 1.093598 1.146446 1.217669 1.225512 1.175034 0.887554
66 1.014809 1.128133 1.043482 1.278142 1.129244 1.087744
66 0.939911 1.021123 1.036555 1.102149 1.077007 1.085264
66 0.926087 1.111652 0.888380 0.956471 1.034986 0.989983
66 0.922771 0.938839 0.881208 1.048807 1.106641 0.995291
66 0.967972 0.877849 1.060898 1.154658 0.832728 0.881411
66 0.901854 0.901224 0.950991 1.043844 0.989312 0.945503
66 0.847877 0.813933 0.832565 0.995357 0.878877 0.850385
66 0.868683 0.940607 0.791268 0.987170 0.901502 0.879286
66 0.931885 0.921821 0.887543 0.901370 0.863304 0.985227
66 0.904516 0.880711 0.975600 1.075482 0.977666 0.942583
66 1.032312 1.165387 0.899690 1.058033 1.052198 1.140629
66 1.135358 1.044336 0.924318 1.145754 1.011814 1.009434
66 1.201055 1.027091 1.240830 1.153647 1.160235 1.167333
66 0.997019 0.991417 1.184126 1.225948 1.189310 1.112355
66 1.201817 1.201751 1.126184 1.329244 1.067820 1.307871
66 1.297062 1.369601 1.172925 1.293458 1.513751 1.364040
66 1.310460 1.359586 1.314633 1.536008 1.410320 1.298319
66 1.332971 1.264735 1.430528 1.156387 1.134586 1.452446
66 1.523924 1.348510 1.311759 1.368934 1.233889 1.319854
66 1.306802 1.368653 1.141151 1.250695 1.391102 1.231503
66 1.196690 1.509259 1.297717 1.229591 1.110047 1.351958
66 1.340945 1.231159 1.141181 1.238137 1.146221 1.123290
66 1.190092 1.084193 1.189094 1.202712 1.050588 0.983132
66 1.214987 0.975198 0.973008 1.015208 1.013723 0.915458
66 0.933177 0.834221 0.762340 0.884533 0.915954 0.836151
66 0.718997 0.788656 0.685633 0.622736 0.653539 0.609618
66 0.552810 0.544938 0.612451 0.481573 0.582411 0.475642
66 0.447592 0.453567 0.607611 0.510419 0.515879 0.563660
66 0.537367 0.438699 0.520952 0.487341 0.460203 0.466565
66 0.504667 0.417638 0.454857 0.431095 0.360962 0.384725
66 0.406183 0.428551 0.406251 0.381287 0.328946 0.389465
66 0.335429 0.294433 0.307537 0.327646 0.301563 0.320610
66 0.326489 0.313165 0.288126 0.320695 0.327863 0.387307
66 0.302899 0.355472 0.352826 0.390234 0.312861 0.430732
66 0.400440 0.342698 0.390591 0.421003 0.349624 0.400767
66 0.368396 0.388765 0.415708 0.433487 0.428191 0.479143
66 0.532719 0.526773 0.651535 0.710772 0.669247 0.715137
66 0.708257 0.873369 0.920800 1.077421 0.948495 1.115735
66 1.292999 1.181456 1.225676 1.195190 1.686217 1.346715
66 1.314332 1.401462 1.430552 1.515373 1.672693 1.548280
66 1.481879 1.423789 1.621646 1.629778 1.826690 1.640498
66 1.614841 1.488848 1.582228 1.560617 1.564264 1.482876
66 1.668906 1.575641 1.562067 1.364239 1.636461 1.628244
66 1.454933 1.674441 1.374385 1.530728 1.490142 1.352748
66 1.522764 1.689408 1.480774 1.403853 1.493702 1.437784
66 1.411870 1.343907 1.529647 1.404737 1.280364 1.307064
66 1.222950 1.219260 1.198638 1.132350 1.303898 1.181889
66 1.245787 1.113088 1.154221 1.078923 1.193703 1.091896
66 1.035683 0.943943 1.097754 1.002069 1.049988 1.000294
66 1.110927 1.068592 1.053314 0.961111 1.043618 1.139944
66 0.933425 1.012585 0.866906 1.111123 0.968658 1.064729
66 0.865193 1.149389 0.977070 1.049908 1.017394 0.982843
66 1.134863 0.863861 1.012296 1.052572 0.970259 0.954262
66 0.942818 0.851139 0.936853 0.962378 0.920471 0.887451
66 0.864740 0.874034 0.978723 0.737825 0.886071 0.858786
66 0.984323 0.886313 0.989155 0.736118 0.923092 0.914819
66 1.000118 0.787028 0.901355 0.924830 0.890995 1.027177
66 0.919126 1.108906 1.044023 1.046061 1.025376 0.906472
66 0.965512 1.055283 1.073101 1.134003 0.996501 0.971834
66 1.124265 0.991504 1.142916 1.179608 1.123826 1.060910
66 1.103615 1.160412 1.116535 1.321038 1.041689 1.047938
66 1.057743 1.101140 0.961142 1.113592 1.119753 1.198083
66 1.240109 1.089668 1.307384 1.406779 1.218725 1.406358
66 1.278405 1.468854 1.389515 1.122524 1.291655 1.404691
66 1.303177 1.299522 1.438259 1.232720 1.309269 1.341118
66 1.271705 1.303449 1.385157 1.348072 1.217480 1.185775
66 1.217933 1.299943 1.283399 1.213989 1.238980 1.143688
66 1.346295 1.299151 1.172251 1.306556 1.442975 1.224802
66 1.436774 1.263751 1.314247 1.299385 1.427819 1.293614
66 1.153908 1.129023 1.098059 1.070668 1.232893 1.121708
66 1.192242 1.117104 1.094181 1.102807 1.189630 1.186032
66 1.112154 0.971018 1.080135 1.053209 0.988594 0.889491
66 0.951038 0.891022 0.620457 0.834873 0.646933 0.775341
66 0.702169 0.753452 0.661427 0.601534 0.622605 0.666336
66 0.601260 0.581762 0.609758 0.574552 0.555297 0.606718
66 0.606133 0.557892 0.512995 0.580659 0.560822 0.535299
66 0.451357 0.499209 0.458110 0.474155 0.482222 0.469392
66 0.440393 0.495272 0.380921 0.456631 0.358927 0.423694
66 0.371619 0.415536 0.378723 0.371112 0.323231 0.322587
66 0.335217 0.335163 0.385239 0.311176 0.324912 0.262082
66 0.268083 0.294812 0.279718 0.354983 0.315962 0.374436
66 0.389618 0.360578 0.384979 0.378340 0.405391 0.410750
66 0.396043 0.418268 0.457673 0.424345 0.411073 0.404663
66 0.369838 0.373424 0.425552 0.380415 0.417669 0.516982
66 0.576569 0.466987 0.660658 0.625572 0.692183 0.746754
66 0.887658 0.768826 0.982983 0.937547 1.128044 1.281890
66 1.199960 1.292328 1.348051 1.265189 1.562551 1.627911
66 1.549291 1.506562 1.468666 1.471128 1.783843 1.765610
66 1.591851 1.407218 1.252055 1.483470 1.610372 1.810931
66 1.542876 1.691118 1.791019 1.633982 1.593630 1.437968
66 1.446083 1.646858 1.561996 1.596535 1.568336 1.650451
66 1.461725 1.509890 1.776872 1.435299 1.488878 1.440786
66 1.553374 1.608500 1.414104 1.407539 1.409943 1.486158
66 1.325412 1.349425 1.112771 1.205448 1.324881 1.413159
66 1.330688 1.168971 1.121871 1.262763 1.065251 1.313250
66 1.199003 1.024906 1.070195 1.077709 1.058902 0.981249
66 1.023030 1.027163 1.012949 1.158124 1.060132 0.958517
66 1.004509 0.951960 0.992525 1.081747 1.026392 1.185716
66 1.030074 0.925813 1.063361 1.085650 1.088085 0.914284
66 0.991686 1.095871 0.870227 0.965801 0.890509 0.928494
66 0.919003 1.094603 0.970119 0.913334 0.892005 0.974287
66 0.952855 1.045321 0.971365 0.818568 0.869383 0.984874
66 0.855282 1.018068 0.811115 0.926243 0.822387 0.845957
66 0.959128 0.873426 0.941662 0.920371 0.944053 0.831194
66 0.884047 0.936741 0.850680 1.039896 0.870106 0.913606
66 0.868649 0.790147 1.101233 0.956224 0.946293 0.975033
66 1.113589 0.931141 1.073265 0.991836 0.985799 1.090995
66 1.135133 1.016585 1.002573 0.975641 1.179978 1.041892
66 0.937276 1.232773 0.993366 1.193518 1.147954 1.165569
66 1.093774 1.189447 1.008742 1.227827 1.328671 1.274807
66 1.006124 1.114443 1.201247 1.277405 1.228802 1.199758
66 1.318301 1.385258 1.251804 1.357869 1.023630 1.198269
66 1.266589 1.252425 1.340393 1.412931 1.360431 1.242199
66 1.147424 1.363723 1.112487 1.371024 1.282072 1.178313
66 1.329875 1.299514 1.296227 1.291786 1.344920 1.398308
66 1.354504 1.408854 1.299032 1.472353 1.362552 1.245240
66 1.186235 1.318680 1.158544 1.188905 1.308426 1.215301
66 1.175099 1.257827 1.258817 1.220145 1.191258 1.297912
66 1.232873 1.162602 1.395974 1.164711 1.228230 1.054428
66 0.962315 0.987727 1.005217 0.958540 1.070759 0.925648
66 0.933226 0.858664 0.797890 0.796354 0.868630 0.691025
66 0.754554 0.631324 0.642149 0.647643 0.646482 0.687138
66 0.597596 0.547507 0.605452 0.548581 0.566168 0.541860
66 0.455256 0.553423 0.549507 0.557000 0.586125 0.457791
66 0.520660 0.509817 0.470758 0.495521 0.492048 0.420261
66 0.466813 0.416487 0.417740 0.370175 0.405608 0.404415
66 0.417595 0.388283 0.329714 0.389000 0.348559 0.353713
66 0.355232 0.356656 0.361073 0.303958 0.308881 0.273544
66 0.325478 0.274679 0.264676 0.338333 0.313048 0.358129
66 0.359569 0.312489 0.289592 0.346705 0.389163 0.356806
66 0.379112 0.355105 0.407676 0.404363 0.385202 0.445444
66 0.450661 0.425260 0.355094 0.389462 0.459439 0.445330
66 0.480516 0.577544 0.608477 0.703235 0.669219 0.836500
66 0.780812 0.988143 0.956403 0.944392 0.938005 1.113537
66 1.175402 1.340863 1.293736 1.304891 1.514085 1.406605
66 1.399309 1.566632 1.465258 1.630376 1.494157 1.557843
66 1.619479 1.562605 1.617073 1.730213 1.680834 1.691113
66 1.544989 1.736373 1.708805 1.747310 1.518328 1.583972
66 1.681092 1.516177 1.558794 1.824618 1.820101 1.722641
66 1.676739 1.425030 1.606096 1.489357 1.394197 1.450510
66 1.513880 1.421777 1.407907 1.550229 1.458754 1.452354
66 1.421349 1.316064 1.222822 1.388929 1.282678 1.106366
66 1.259173 1.169643 1.334012 1.297329 1.276362 1.145684
66 1.262719 1.206217 1.121793 1.102508 1.209328 1.071827
66 1.126722 1.176545 1.238128 1.203667 1.127079 0.915813
66 0.975243 0.979115 1.151423 0.954382 1.037169 1.010513
66 0.925190 1.029323 1.030489 0.898922 1.098387 0.834744
66 0.956111 1.083021 0.909772 1.034183 0.901010 0.995882
66 0.814898 0.927980 0.866634 0.949564 0.940274 0.911450
66 1.014582 0.876869 0.981405 1.044955 0.925631 0.844965
66 0.810048 0.843245 0.939375 0.896695 0.949432 0.936260
66 0.891575 0.915820 1.015348 0.987225 0.868792 0.965615
66 0.942181 0.988357 0.961712 0.848272 0.807576 0.978954
66 1.088519 0.894489 0.948336 0.891566 1.073942 0.808070
66 0.818907 1.039321 1.011219 0.987250 1.010278 1.088484
66 1.017141 0.967137 0.989026 1.152796 1.038743 0.971118
66 1.108992 1.152571 1.234236 1.143047 1.071643 1.182531
66 1.214165 1.152051 1.159900 1.197065 1.174899 1.214428
66 1.101896 1.098356 1.137994 1.292678 1.265037 1.352986
66 1.239578 1.151297 1.392298 1.281123 1.422158 1.357394
66 1.527616 1.280452 1.399713 1.400135 1.249373 1.289234
66 1.153803 1.143789 1.317495 1.385614 1.368138 1.336043
66 1.389754 1.238493 1.271689 1.377284 1.346335 1.280124
66 1.440400 1.168612 1.249542 1.274017 1.388135 1.302114
66 1.168805 1.350668 1.406334 1.365558 1.347463 1.085880
66 1.178495 1.309950 1.246044 1.292435 1.103918 1.208874
66 1.066581 0.998745 1.193677 1.224237 1.148368 1.101058
66 0.945114 1.139398 1.023622 1.154679 1.040263 0.784700
66 0.954364 0.765578 0.776337 0.778013 0.758135 0.759674
66 0.652757 0.624463 0.698694 0.646771 0.638821 0.506458
66 0.591497 0.545294 0.533136 0.606717 0.506863 0.499125
66 0.524793 0.550955 0.487877 0.569758 0.571754 0.470493
66 0.490197 0.462901 0.421414 0.491906 0.500903 0.540608
66 0.424929 0.497548 0.488051 0.438258 0.441881 0.439832
66 0.463171 0.403096 0.374312 0.338685 0.360493 0.368304
66 0.336204 0.300234 0.314328 0.302566 0.307763 0.259570
66 0.313219 0.317896 0.320362 0.317162 0.279485 0.336634
66 0.377749 0.334621 0.311219 0.333207 0.398413 0.407256
66 0.428361 0.400250 0.353934 0.375159 0.426875 0.405167
66 0.423363 0.421013 0.408019 0.421270 0.511052 0.484465
66 0.494856 0.558426 0.595009 0.526511 0.729056 0.863370
66 0.766030 0.984935 0.928885 1.038023 1.171158 1.075332
66 1.319279 1.132885 1.213898 1.287472 1.467801 1.393307
66 1.288558 1.471836 1.429341 1.639357 1.526001 1.595115
66 1.548100 1.666736 1.595039 1.666506 1.289744 1.641123
66 1.681633 1.599559 1.708783 1.712917 1.780192 1.619599
66 1.355034 1.302393 1.384076 1.576242 1.554478 1.601818
66 1.481619 1.460128 1.611340 1.613875 1.491916 1.507428
66 1.548518 1.546878 1.338016 1.373931 1.300160 1.367909
66 1.500290 1.452071 1.252759 1.410798 1.346088 1.266358
66 1.153728 1.263703 1.332121 1.029853 1.188664 1.428289
66 1.257096 1.200589 1.091422 1.081917 1.121198 1.256888
66 1.140972 1.010841 1.175183 1.037404 1.194071 0.994057
66 0.949298 1.038320 1.096848 1.094843 1.018900 0.923185
66 0.959573 0.837543 0.925715 0.985048 1.031643 0.974787
66 0.998965 0.973034 1.066214 0.933634 1.072621 1.160745
66 1.037823 0.953094 0.946254 1.076055 0.884926 0.889860
66 0.864861 0.847298 0.855935 0.982878 0.996173 0.856620
66 0.914928 0.948305 0.896401 0.818010 0.779342 0.953199
66 0.916639 0.923124 0.805782 0.903464 0.935159 0.917251
66 0.846358 0.979360 0.801136 0.988322 1.008034 1.053817
66 0.918838 0.877417 1.023974 0.917738 0.984916 0.965620
66 0.927834 1.034960 0.904567 1.075281 0.955135 0.899064
66 1.047748 1.096780 1.117587 1.146770 0.880103 1.004331
66 1.109385 1.242438 1.185576 1.294349 1.083841 1.164339
66 1.046446 1.118265 1.095579 1.113185 1.144313 1.190864
66 1.202132 1.262282 1.233228 1.195669 1.187563 1.218352
66 1.213168 1.317012 1.363826 1.413822 1.207427 1.344070
66 1.154953 1.342279 1.418717 1.291298 1.419629 1.188199
66 1.213707 1.291367 1.410949 1.259443 1.254465 1.197481
66 1.321100 1.429451 1.372906 1.373031 1.279702 1.243342