; Filename: D:/OneDrive/IHE_HI/015. Thesis/Github_repositories\Msc-Thesis/INP_FILES/Twoloops_Base_WNTR.inp
; WNTR: 0.4.2
; Created: 2023-03-07 09:38:07
[TITLE]

[JUNCTIONS]
;ID                      Elevation       Demand Pattern                 
 1                                160             100 37                         ;
 2                                150             100 37                         ;
 3                                150             270 37                         ;
 4                                155             120 37                         ;
 5                                160             200 37                         ;
 6                                165             330 37                         ;

[RESERVOIRS]
;ID                                   Head                  Pattern
 7                                210                            ;

[TANKS]
;ID                              Elevation           Init Level            Min Level            Max Level             Diameter           Min Volume Volume Curve         Overflow            

[PIPES]
;ID                   Node1                Node2                              Length             Diameter            Roughness           Minor Loss               Status
 1                    2                    1                               1000             200             130               0                 Open   ;
 2                    1                    3                               1000             150             130               0                 Open   ;
 3                    2                    4                               1000             450             130               0                 Open   ;
 4                    4                    3                               1000             150             130               0                 Open   ;
 5                    5                    3                               1000             150             130               0                 Open   ;
 6                    4                    6                               1000             400             130               0                 Open   ;
 7                    6                    5                               1000             250             130               0                 Open   ;
 8                    7                    2                               1000             450             130               0                 Open   ;

[PUMPS]
;ID                   Node1                Node2                Properties          

[VALVES]
;ID                   Node1                Node2                            Diameter Type              Setting           Minor Loss

[TAGS]
;type      name       tag       

[DEMANDS]
;ID        Demand     Pattern   

[STATUS]
;ID        Setting   

[PATTERNS]
;ID        Multipliers

37 0.995259 0.813002 0.752681 0.734510 0.667232 0.531910
37 0.569798 0.513850 0.496903 0.492096 0.461752 0.469074
37 0.418265 0.366558 0.338533 0.311846 0.326893 0.313352
37 0.354743 0.360570 0.338728 0.417189 0.423315 0.408193
37 0.568093 0.580807 0.819274 1.002821 1.310360 1.470814
37 1.480572 1.583891 1.514773 1.431212 1.593755 1.632523
37 1.718108 1.695097 1.523386 1.505597 1.405630 1.333643
37 1.264519 1.513885 1.260247 1.212626 1.103237 1.197364
37 0.993483 1.048710 0.976684 1.034408 0.969352 0.928525
37 1.001842 1.031848 1.003991 0.998903 0.917407 0.904339
37 0.863687 0.866564 0.838629 0.794942 0.909581 0.897791
37 0.852318 0.999108 0.945562 1.029842 1.097984 1.084635
37 1.175200 1.040225 1.175115 1.124478 1.137303 1.186807
37 1.234849 1.287373 1.209118 1.377578 1.343101 1.182855
37 1.416084 1.448491 1.394886 1.289498 1.216481 1.370873
37 1.239198 1.331566 1.214996 1.214134 1.103177 1.040515
37 0.900567 0.879013 0.716345 0.663074 0.667793 0.519350
37 0.497976 0.548721 0.464806 0.536271 0.446434 0.412080
37 0.446151 0.396227 0.366700 0.322345 0.284498 0.353616
37 0.342603 0.398344 0.422734 0.397712 0.417270 0.450856
37 0.511293 0.594360 0.831651 1.094925 1.149991 1.339515
37 1.428633 1.720593 1.664540 1.663959 1.552541 1.669680
37 1.535264 1.584056 1.500130 1.595646 1.551893 1.439634
37 1.442213 1.266375 1.183682 1.278192 1.204835 1.187586
37 1.257288 1.122466 0.975609 1.078694 0.921046 0.971639
37 0.999430 1.109411 0.955315 0.932448 0.948071 0.887658
37 0.960838 0.828283 0.820944 0.863498 0.873106 1.026475
37 0.998539 0.977222 0.926474 1.078654 0.988834 0.976547
37 1.178410 1.144826 1.210812 1.195087 1.261692 1.181483
37 1.180285 1.335520 1.237334 1.252867 1.270883 1.304321
37 1.272388 1.193257 1.252438 1.129669 1.348768 1.165371
37 1.185769 1.244456 1.146751 1.253110 0.996299 1.014191
37 0.897879 0.738296 0.733253 0.640793 0.627784 0.592962
37 0.609036 0.560144 0.488925 0.473366 0.488000 0.448391
37 0.415363 0.328596 0.329269 0.292187 0.305039 0.315389
37 0.367217 0.387279 0.418872 0.390211 0.379637 0.416706
37 0.499489 0.650811 0.927787 1.011640 1.131172 1.323592
37 1.426130 1.593492 1.452083 1.630415 1.643019 1.639882
37 1.542658 1.558467 1.426371 1.488023 1.451142 1.494246
37 1.311015 1.418781 1.416570 1.090687 1.223414 1.190461
37 1.057929 1.036948 1.023910 0.992877 0.981459 0.898823
37 1.072924 1.071159 0.951198 0.894775 0.983521 0.892522
37 0.907665 0.868702 0.918225 0.923760 0.860818 0.843609
37 0.854997 1.007717 0.928668 0.995423 1.014327 1.072911
37 0.972206 1.136187 1.183483 1.178883 1.177616 1.236694
37 1.288501 1.069607 1.452561 1.337528 1.255449 1.272391
37 1.338512 1.291489 1.144019 1.465044 1.291378 1.368222
37 1.217187 1.354933 1.220617 1.188824 1.012345 1.070735
37 0.995259

[CURVES]
;ID         X-Value      Y-Value     

[CONTROLS]

[RULES]

[ENERGY]
GLOBAL EFFICIENCY      75.0000
GLOBAL PRICE           0.0000
DEMAND CHARGE          0.0000

[EMITTERS]
;ID        Flow coefficient

[QUALITY]

[SOURCES]
;Node      Type       Quality    Pattern   

[REACTIONS]
;Type           Pipe/Tank               Coefficient

 ORDER BULK 1
 ORDER TANK 1
 ORDER WALL 1
 GLOBAL BULK 0.0000    
 GLOBAL WALL 0.0000    
 LIMITING POTENTIAL 0.0000    
 ROUGHNESS CORRELATION 0.0000    

[MIXING]
;Tank ID             Model Fraction

[TIMES]
DURATION             72:00:00
HYDRAULIC TIMESTEP   00:15:00
QUALITY TIMESTEP     00:05:00
PATTERN TIMESTEP     00:15:00
PATTERN START        00:00:00
REPORT TIMESTEP      00:15:00
REPORT START         00:00:00
START CLOCKTIME      00:00:00 AM
RULE TIMESTEP        00:06:00
STATISTIC            NONE      

[REPORT]
 Status             	No
 Summary            	No
 Page               	0
 Nodes					ALL
 Links					ALL
 Flow					Yes
 Headloss				No
 Velocity 				No
 Demand 				Yes
 Head 					Yes
 Pressure 				Yes
 Quality 				No
 State 					Yes

[OPTIONS]
UNITS                CMH                 
HEADLOSS             H-W                 
SPECIFIC GRAVITY     1
VISCOSITY            1
TRIALS               40
ACCURACY             0.001
CHECKFREQ            2
MAXCHECK             10
UNBALANCED           CONTINUE 10
DEMAND MULTIPLIER    1
DEMAND MODEL         PDA
MINIMUM PRESSURE     0.00
REQUIRED PRESSURE    0.10
PRESSURE EXPONENT    0.5
EMITTER EXPONENT     0.5
QUALITY              NONE                
DIFFUSIVITY          1
TOLERANCE            0.01

[COORDINATES]
;Node      X-Coord    Y-Coord   
1                4000.000000000       7000.000000000
2                5000.000000000       7000.000000000
3                4000.000000000       6000.000000000
4                5000.000000000       6000.000000000
5                4000.000000000       5000.000000000
6                5000.000000000       5000.000000000
7                6000.000000000       7000.000000000

[VERTICES]
;Link      X-Coord    Y-Coord   

[LABELS]

[BACKDROP]
DIMENSIONS    2900.000    4900.000    5100.000    7100.000
UNITS    METERS
OFFSET    0.00    0.00

[END]
