; Filename: D:/OneDrive/IHE_HI/015. Thesis/Github_repositories\Msc-Thesis/INP_FILES/Twoloops_Base_WNTR.inp
; WNTR: 0.4.2
; Created: 2023-03-07 09:38:17
[TITLE]

[JUNCTIONS]
;ID                      Elevation       Demand Pattern                 
 1                                160             100 48                         ;
 2                                150             100 48                         ;
 3                                150             270 48                         ;
 4                                155             120 48                         ;
 5                                160             200 48                         ;
 6                                165             330 48                         ;

[RESERVOIRS]
;ID                                   Head                  Pattern
 7                                210                            ;

[TANKS]
;ID                              Elevation           Init Level            Min Level            Max Level             Diameter           Min Volume Volume Curve         Overflow            

[PIPES]
;ID                   Node1                Node2                              Length             Diameter            Roughness           Minor Loss               Status
 1                    2                    1                               1000             200             130               0                 Open   ;
 2                    1                    3                               1000             150             130               0                 Open   ;
 3                    2                    4                               1000             450             130               0                 Open   ;
 4                    4                    3                               1000             150             130               0                 Open   ;
 5                    5                    3                               1000             150             130               0                 Open   ;
 6                    4                    6                               1000             400             130               0                 Open   ;
 7                    6                    5                               1000             250             130               0                 Open   ;
 8                    7                    2                               1000             450             130               0                 Open   ;

[PUMPS]
;ID                   Node1                Node2                Properties          

[VALVES]
;ID                   Node1                Node2                            Diameter Type              Setting           Minor Loss

[TAGS]
;type      name       tag       

[DEMANDS]
;ID        Demand     Pattern   

[STATUS]
;ID        Setting   

[PATTERNS]
;ID        Multipliers

48 0.963506 0.875664 0.858918 0.865106 0.820947 0.707476
48 0.737950 0.683613 0.663910 0.658091 0.633662 0.649988
48 0.618265 0.589990 0.585741 0.572584 0.588762 0.542457
48 0.545819 0.513630 0.471392 0.532117 0.530045 0.491160
48 0.545395 0.464935 0.487980 0.476668 0.502144 0.493029
48 0.460633 0.456296 0.425072 0.397246 0.415706 0.413682
48 0.419685 0.406928 0.370294 0.359501 0.337138 0.321077
48 0.307245 0.345200 0.305741 0.300368 0.286277 0.308681
48 0.280633 0.300860 0.298272 0.322167 0.320008 0.321233
48 0.347809 0.365505 0.371105 0.384644 0.378789 0.389721
48 0.389241 0.396245 0.389128 0.373725 0.403474 0.394225
48 0.376199 0.414393 0.399766 0.428105 0.457924 0.471328
48 0.522788 0.512183 0.593993 0.618905 0.668876 0.736142
48 0.806849 0.884285 0.904174 1.050756 1.098877 1.070939
48 1.271436 1.349926 1.366830 1.341923 1.334272 1.492782
48 1.443276 1.571019 1.537722 1.609253 1.591453 1.630963
48 1.600672 1.725885 1.627033 1.650367 1.749962 1.540663
48 1.545013 1.688502 1.545818 1.743091 1.585330 1.558111
48 1.723068 1.688190 1.706103 1.638336 1.520057 1.686921
48 1.542912 1.601345 1.601290 1.523903 1.560604 1.567860
48 1.522586 1.421498 1.490375 1.535201 1.402063 1.417192
48 1.384220 1.494183 1.410344 1.377346 1.295735 1.346895
48 1.264935 1.283260 1.231265 1.279056 1.255877 1.199981
48 1.211801 1.124717 1.090638 1.164104 1.136244 1.142334
48 1.204858 1.127714 1.034850 1.109732 0.995978 1.022031
48 1.029322 1.094194 0.986637 0.977520 1.002125 0.975821
48 1.045065 0.955668 0.952830 0.981814 0.980576 1.079333
48 1.041650 1.008403 0.956484 1.039971 0.965045 0.941351
48 1.047521 1.007667 1.025086 0.993605 1.005915 0.938282
48 0.914250 0.969567 0.903988 0.898961 0.898766 0.907846
48 0.887256 0.844841 0.866354 0.806903 0.905328 0.825396
48 0.842696 0.884237 0.857972 0.941527 0.844312 0.904330
48 0.898586 0.863661 0.931778 0.913656 0.956437 0.966907
48 1.026469 1.004651 0.948606 0.962808 1.024633 1.016752
48 1.025605 0.943785 1.016934 0.996335 1.046805 1.039553
48 1.090264 1.073624 1.101881 1.056225 1.043298 1.074239
48 1.099251 1.124617 1.216448 1.121563 1.088092 1.123560
48 1.126138 1.177905 1.092310 1.175629 1.188899 1.201663
48 1.171329 1.198177 1.150100 1.205248 1.212464 1.269828
48 1.200176 1.306836 1.351756 1.176814 1.311723 1.330502
48 1.266853 1.282656 1.298692 1.291371 1.291276 1.219633
48 1.366820 1.361931 1.261854 1.226527 1.328827 1.270706
48 1.307382 1.283211 1.335994 1.336691 1.263480 1.229971
48 1.220260 1.335144 1.241642 1.277144 1.271938 1.299128
48 1.199313 1.307118 1.320883 1.293863 1.267904 1.282400
48 1.290188 1.121422 1.349456 1.259931 1.196304 1.195853
48 1.223700 1.178263 1.071367 1.241639 1.121258 1.149022
48 1.050183 1.119327 1.039007 1.022507 0.926895 0.979902
48 0.924833 0.906749 0.805793 0.778664 0.834280 0.705039
48 0.707066 0.719054 0.669268 0.662555 0.619966 0.623349
48 0.568643 0.626074 0.572803 0.549669 0.570369 0.536866
48 0.510298 0.503151 0.539575 0.515250 0.509590 0.528009
48 0.477463 0.479225 0.479590 0.482077 0.472338 0.460317
48 0.456667 0.447568 0.428037 0.417399 0.426202 0.396460
48 0.381482 0.383405 0.373749 0.396750 0.341978 0.353257
48 0.339606 0.304985 0.321757 0.291247 0.269323 0.306631
48 0.278929 0.308915 0.300888 0.338317 0.340645 0.331041
48 0.338622 0.341897 0.363593 0.375784 0.382980 0.397938
48 0.409256 0.407650 0.389916 0.378358 0.422498 0.389615
48 0.391941 0.398379 0.384239 0.419049 0.436410 0.480545
48 0.513969 0.538877 0.606374 0.644989 0.692580 0.758442
48 0.810800 0.868368 0.938217 0.968450 1.090885 1.095728
48 1.240398 1.242249 1.307869 1.378350 1.429846 1.342379
48 1.454793 1.550514 1.421432 1.572742 1.427519 1.521261
48 1.602472 1.504070 1.555000 1.528625 1.734664 1.639152
48 1.664670 1.610995 1.598997 1.512774 1.593183 1.557209
48 1.654907 1.666551 1.680640 1.634953 1.536592 1.497232
48 1.607460 1.573656 1.433690 1.555215 1.572817 1.515646
48 1.488897 1.438851 1.387587 1.504523 1.424298 1.412411
48 1.506379 1.429363 1.393782 1.362959 1.418191 1.409144
48 1.348334 1.311476 1.157545 1.251523 1.221176 1.214611
48 1.237904 1.047251 1.133410 1.156348 1.107641 1.050897
48 1.138234 1.098695 1.032346 1.075646 1.085865 1.041476
48 1.065191 1.027220 1.000855 0.964055 1.002629 1.010215
48 1.035033 0.994215 1.016940 0.960757 0.969186 0.997573
48 0.961205 1.037854 1.024417 1.017225 1.018892 1.084462
48 0.981245 0.907430 0.996551 0.979111 0.952449 0.925650
48 0.936950 0.950680 0.915218 1.013668 0.880275 0.878431
48 0.817610 0.903003 0.817524 0.866560 0.873500 0.856874
48 0.942966 0.917494 0.930778 0.855493 0.930550 0.912524
48 0.927771 0.943298 0.879498 0.904354 0.959807 0.836638
48 1.001910 0.974767 0.961064 0.980690 0.941028 0.976914
48 1.044011 1.061439 1.127707 1.023607 1.007944 1.022183
48 1.009128 1.056870 1.084635 1.074832 1.131808 1.081921
48 1.084712 1.082058 1.042770 1.053009 1.077991 1.198637
48 1.188505 1.219207 1.102022 1.080320 1.150308 1.198978
48 1.223937 1.260399 1.233438 1.315214 1.228341 1.203423
48 1.173748 1.222176 1.287860 1.237438 1.338059 1.368609
48 1.176781 1.348415 1.188668 1.327928 1.371494 1.310664
48 1.239714 1.274979 1.290638 1.293456 1.291132 1.294946
48 1.311101 1.236976 1.287448 1.379532 1.281227 1.278902
48 1.358931 1.169906 1.365239 1.270622 1.311562 1.306881
48 1.349008 1.283435 1.258683 1.356236 1.162458 1.278462
48 1.201448 1.222883 1.352227 1.238361 1.237944 1.128277
48 1.165006 1.193068 1.182632 1.175227 1.126627 1.127244
48 1.099687 0.977341 1.028762 1.028858 0.990164 0.921020
48 0.870997 0.823315 0.822226 0.829924 0.704245 0.716823
48 0.678519 0.709372 0.651881 0.635269 0.624565 0.625200
48 0.590583 0.515593 0.588031 0.574966 0.550681 0.523229
48 0.546654 0.539866 0.515135 0.514064 0.493268 0.502571
48 0.468991 0.501894 0.468689 0.484838 0.446527 0.454670
48 0.455772 0.419638 0.442753 0.424886 0.392191 0.389680
48 0.409682 0.402163 0.374137 0.369793 0.355048 0.344901
48 0.346713 0.300911 0.320549 0.301054 0.298676 0.295751
48 0.295498 0.288559 0.311621 0.338462 0.325949 0.337137
48 0.338629 0.357660 0.377022 0.374417 0.381595 0.401838
48 0.385312 0.406088 0.415408 0.423283 0.399183 0.422582
48 0.419093 0.390649 0.394612 0.422006 0.463260 0.467553
48 0.487987 0.572249 0.591293 0.577268 0.701807 0.769267
48 0.824404 0.898174 0.945822 0.960726 1.062787 1.097897
48 1.155228 1.191376 1.328909 1.356943 1.368987 1.395164
48 1.465559 1.562437 1.402759 1.572098 1.534836 1.466566
48 1.475475 1.552004 1.633029 1.649787 1.566255 1.694701
48 1.720383 1.651226 1.583558 1.690094 1.660708 1.661859
48 1.557986 1.413095 1.721929 1.479162 1.572038 1.716427
48 1.580254 1.610455 1.450115 1.424375 1.490734 1.578054
48 1.479225 1.439624 1.484468 1.520946 1.358777 1.356690
48 1.364300 1.452188 1.386311 1.470842 1.386985 1.316605
48 1.365784 1.292470 1.227774 1.279232 1.193373 1.196007
48 1.256262 1.171376 1.122562 1.122750 1.174852 1.089414
48 1.082978 1.064480 1.081969 1.045889 0.983954 1.004304
48 0.993628 1.074942 1.049989 1.034687 0.985750 0.969714
48 0.979699 0.956788 1.098423 0.909563 1.023079 0.950513
48 0.999351 0.965171 0.958407 0.960113 1.075834 0.998012
48 0.969372 1.017174 0.989079 1.009354 0.901612 0.975068
48 0.983181 0.881103 0.950748 0.987181 0.914903 0.937019
48 0.924141 0.868709 0.890662 0.830157 0.867295 0.891283
48 0.907144 0.883264 0.909589 0.847672 0.886734 0.895462
48 0.966585 0.898231 0.894457 0.920754 0.893684 0.943289
48 0.930928 0.885334 0.960568 0.959768 0.917375 0.988123
48 1.059574 1.030089 1.042841 0.971553 1.054961 1.049847
48 1.074227 1.078094 1.010176 1.074523 1.051390 1.089965
48 1.060514 1.165975 1.077295 1.083065 1.134728 1.090240
48 1.127925 1.117282 1.229760 1.209521 1.178786 1.171974
48 1.245164 1.229297 1.243866 1.228221 1.155683 1.243423
48 1.231569 1.299935 1.327132 1.249282 1.313896 1.385375
48 1.265279 1.391054 1.261105 1.308139 1.306854 1.307874
48 1.262815 1.274678 1.269452 1.319995 1.318881 1.416471
48 1.371291 1.273305 1.316927 1.352421 1.302840 1.298391
48 1.305434 1.348537 1.259399 1.286590 1.327538 1.318084
48 1.312458 1.278131 1.344101 1.399351 1.304741 1.267553
48 1.308307 1.234105 1.214009 1.242202 1.101455 1.158776
48 1.183298 1.119677 1.117919 1.126890 1.052223 1.086040
48 1.056957 1.055593 1.074667 1.005085 0.968155 0.938341
48 0.908186 0.826817 0.822764 0.803745 0.721999 0.761751
48 0.741683 0.670407 0.660226 0.624714 0.647658 0.588182
48 0.594661 0.566960 0.576696 0.524490 0.585037 0.525842
48 0.540360 0.527278 0.509001 0.500145 0.531520 0.495544
48 0.505423 0.477827 0.474479 0.489336 0.490744 0.462395
48 0.431757 0.485420 0.425623 0.404825 0.465322 0.404467
48 0.376612 0.377641 0.381651 0.366671 0.339908 0.365232
48 0.322871 0.305039 0.324097 0.321978 0.291525 0.282589
48 0.312365 0.278592 0.294174 0.329534 0.325959 0.333596
48 0.353116 0.357152 0.350894 0.399444 0.409248 0.398707
48 0.400722 0.439651 0.397763 0.397277 0.406472 0.424244
48 0.428082 0.402653 0.419937 0.403667 0.439395 0.453148
48 0.479863 0.575036 0.566058 0.622804 0.703156 0.792712
48 0.832755 0.979686 0.945541 1.024707 1.090676 1.206556
48 1.224347 1.248936 1.255815 1.364867 1.472113 1.408855
48 1.497971 1.512528 1.577693 1.498896 1.716370 1.504977
48 1.576605 1.671260 1.638029 1.678174 1.595084 1.623581
48 1.628530 1.727504 1.666719 1.668890 1.569577 1.668378
48 1.614437 1.682365 1.715405 1.561636 1.548704 1.513020
48 1.550674 1.527834 1.565019 1.524543 1.501158 1.576472
48 1.443727 1.512645 1.448890 1.500095 1.522038 1.408440
48 1.433593 1.401220 1.329493 1.368310 1.352368 1.340230
48 1.289683 1.286457 1.205402 1.227521 1.254864 1.253261
48 1.172754 1.181067 1.170402 1.153217 1.153134 1.033020
48 1.097830 1.097050 1.031090 1.133398 1.058109 1.106372
48 0.999502 0.986851 1.026054 0.943057 1.014738 1.006323
48 1.040627 1.026822 0.981991 0.955445 1.069034 0.970250
48 0.961570 0.961278 1.050735 0.985114 0.974958 1.008875
48 0.991722 0.968063 1.018487 1.022904 1.010914 0.992922
48 0.969064 0.876788 0.996367 0.935626 0.937716 0.947672
48 0.951601 0.908972 0.904740 0.864442 0.884408 0.851779
48 0.856254 0.850856 0.878609 0.924007 1.003288 0.901554
48 0.851457 0.951834 0.901694 0.895659 0.935582 0.889620
48 0.953129 0.950295 0.966613 0.986947 0.984112 0.991431
48 1.011373 1.025815 0.975926 0.967919 1.032661 0.983839
48 1.055649 1.099981 1.094223 1.031180 1.046949 1.106495
48 1.082343 1.093784 1.142263 1.079095 1.113195 1.102865
48 1.099539 1.116028 1.195597 1.175092 1.139953 1.179599
48 1.121337 1.174206 1.324432 1.225071 1.275649 1.245770
48 1.275897 1.300858 1.219149 1.281462 1.371185 1.254206
48 1.270545 1.287327 1.319681 1.334380 1.373719 1.333392
48 1.303352 1.371308 1.341023 1.225002 1.433239 1.392745
48 1.291253 1.319462 1.368902 1.291591 1.339262 1.359545
48 1.249864 1.271922 1.351683 1.327599 1.351167 1.294962
48 1.284972 1.193606 1.234465 1.291730 1.326214 1.304565
48 1.263403 1.247594 1.262412 1.244455 1.297371 1.221967
48 1.128900 1.123504 1.236925 1.093197 1.160678 1.092121
48 1.072748 1.048863 1.077428 0.990497 0.966051 0.877394
48 0.907441 0.880176 0.834465 0.838334 0.765569 0.745062
48 0.757811 0.645134 0.654507 0.684392 0.653624 0.630925
48 0.619984 0.594814 0.613084 0.573581 0.560891 0.550423
48 0.543227 0.507186 0.541190 0.515854 0.549667 0.504655
48 0.508418 0.498523 0.474901 0.499324 0.509190 0.465385
48 0.452293 0.443114 0.407362 0.428360 0.425805 0.428456
48 0.415361 0.381787 0.371956 0.380261 0.349456 0.333468
48 0.348118 0.333503 0.312339 0.298464 0.277126 0.306432
48 0.289244 0.279619 0.328963 0.325480 0.311799 0.320778
48 0.360333 0.346728 0.389310 0.389417 0.396992 0.401861
48 0.403063 0.416187 0.394905 0.402826 0.412681 0.409687
48 0.383205 0.398718 0.419016 0.420245 0.476532 0.461535
48 0.496756 0.555378 0.592314 0.632638 0.672044 0.762680
48 0.850990 0.899211 0.918853 1.084670 1.016361 1.068820
48 1.246107 1.266105 1.276594 1.292255 1.523381 1.439076
48 1.498279 1.516826 1.551541 1.582209 1.615056 1.562328
48 1.581335 1.498638 1.568288 1.641864 1.695404 1.667474
48 1.605551 1.543343 1.441740 1.691861 1.574007 1.577320
48 1.608421 1.504196 1.565300 1.709004 1.606115 1.589705
48 1.460907 1.690785 1.455027 1.651319 1.394325 1.597083
48 1.597083 1.437854 1.497700 1.489780 1.395185 1.343084
48 1.334488 1.421378 1.368735 1.324666 1.388606 1.345251
48 1.260716 1.220048 1.289841 1.218581 1.232436 1.286360
48 1.216874 1.135575 1.167275 1.100405 1.201342 1.089012
48 1.109120 1.100036 1.080909 0.979049 0.990490 1.022415
48 1.045327 1.018371 0.977998 0.956413 0.989927 0.983640
48 1.020513 0.985776 1.022744 0.975545 0.990264 0.988048
48 0.972134 1.030011 0.973053 0.985003 1.002324 0.951280
48 0.987003 0.966741 0.973319 0.978746 0.941463 0.954888
48 1.003628 0.942860 0.976791 0.937272 0.943795 0.879108
48 0.903777 0.898799 0.867456 0.856521 0.830589 0.934689
48 0.847351 0.929912 0.867593 0.856200 0.912527 0.872181
48 0.920465 0.893931 0.930213 0.884341 0.958647 0.954343
48 0.909970 1.054486 0.983626 1.061180 1.044286 0.983299
48 0.983509 0.992764 0.943412 0.998067 1.045432 1.107353
48 1.019448 1.097577 1.014756 1.051063 1.064411 1.108396
48 1.120122 1.150459 1.150025 1.134390 1.149018 1.211721
48 1.123966 1.191460 1.079862 1.191955 1.158664 1.190728
48 1.249924 1.217656 1.262752 1.301989 1.258666 1.307549
48 1.241935 1.266822 1.248843 1.336577 1.311095 1.269143
48 1.308043 1.357670 1.303581 1.257331 1.314335 1.203707
48 1.346774 1.283549 1.279804 1.348594 1.230615 1.401963
48 1.275027 1.272608 1.353139 1.337417 1.428834 1.291018
48 1.296472 1.226202 1.286318 1.265954 1.279628 1.211037
48 1.386352 1.223810 1.148755 1.228013 1.252859 1.218685
48 1.325708 1.254351 1.252811 1.270863 1.242413 1.262403
48 1.146745 1.157835 1.197148 1.030649 1.064286 1.126095
48 1.059334 1.094007 1.060491 0.950360 0.983075 0.979549
48 0.905308 0.828171 0.855633 0.814120 0.780463 0.757342
48 0.625773 0.712012 0.714879 0.658766 0.634889 0.631368
48 0.608117 0.602440 0.575557 0.547714 0.533242 0.525107
48 0.509462 0.509085 0.561993 0.534201 0.499521 0.498283
48 0.502251 0.480709 0.488404 0.495202 0.472459 0.471919
48 0.474029 0.444604 0.445743 0.426090 0.421091 0.405771
48 0.391538 0.390953 0.384645 0.366031 0.358917 0.330365
48 0.313873 0.325555 0.320692 0.306335 0.317630 0.310240
48 0.332167 0.301005 0.296992 0.307865 0.319293 0.343575
48 0.318144 0.378301 0.366578 0.376294 0.371870 0.393652
48 0.400212 0.400066 0.407665 0.391977 0.386275 0.409452
48 0.404030 0.410071 0.432393 0.409743 0.429726 0.492490
48 0.470342 0.510575 0.603709 0.642398 0.695932 0.750828
48 0.818053 0.879052 0.999792 0.998059 1.071820 1.222960
48 1.201320 1.366797 1.299803 1.425581 1.301675 1.441171
48 1.373961 1.548374 1.451032 1.566330 1.551375 1.512651
48 1.496361 1.577889 1.731525 1.605182 1.687085 1.624738
48 1.684817 1.506689 1.595769 1.678771 1.601474 1.600577
48 1.572450 1.667079 1.606404 1.583820 1.614784 1.604058
48 1.572894 1.647555 1.539112 1.550467 1.484016 1.521162
48 1.595266 1.448628 1.406023 1.515979 1.433547 1.431201
48 1.406199 1.395674 1.420136 1.309768 1.282801 1.322937
48 1.216465 1.211238 1.357732 1.283093 1.227071 1.269986
48 1.143252 1.161293 1.188746 1.184755 1.151877 1.000795
48 1.057404 1.107397 1.058774 1.170205 1.090280 1.064500
48 0.986025 1.022569 1.026743 1.056544 1.041547 1.043844
48 0.963044 1.055233 0.943524 0.977893 1.017747 0.995990
48 0.963155 0.971861 0.943496 1.027401 1.055953 0.999320
48 0.983986 0.936451 1.024784 1.067878 0.902655 0.922390
48 0.927779 0.922529 0.942497 0.984152 0.952379 0.926357
48 0.873939 0.853971 0.860906 0.940514 0.881058 0.866148
48 0.875163 0.911501 0.837697 0.936982 0.895929 0.887029
48 0.915942 0.913907 0.900109 0.910669 0.895549 0.960649
48 0.924619 0.917189 0.969212 1.023799 0.979564 0.966683
48 1.016156 1.087218 0.958808 1.042338 1.043706 1.092140
48 1.093661 1.052254 0.996299 1.111030 1.048036 1.050794
48 1.150527 1.067453 1.178228 1.138554 1.145794 1.153330
48 1.072217 1.073533 1.174090 1.199304 1.185406 1.151480
48 1.200908 1.205720 1.172877 1.279377 1.153598 1.278456
48 1.277717 1.318420 1.224216 1.288254 1.401742 1.329733
48 1.305230 1.331477 1.310132 1.421473 1.358878 1.302796
48 1.319783 1.285143 1.367408 1.229671 1.218141 1.376554
48 1.411962 1.324162 1.305896 1.334741 1.267569 1.310936
48 1.304774 1.335988 1.222393 1.277133 1.347060 1.266684
48 1.248345 1.403290 1.295744 1.259447 1.196958 1.314691
48 1.305432 1.246233 1.196361 1.239355 1.187290 1.169071
48 1.195046 1.133977 1.177589 1.174819 1.088413 1.043552
48 1.147535 1.014860 1.000125 1.006702 0.990532 0.925041
48 0.916589 0.848045 0.794449 0.839237 0.839918 0.786204
48 0.714964 0.738217 0.676147 0.635096 0.641786 0.611937
48 0.576405 0.566035 0.593987 0.523308 0.568985 0.511294
48 0.493330 0.492683 0.566308 0.514489 0.514105 0.534923
48 0.518684 0.466176 0.504020 0.483802 0.466669 0.466113
48 0.481231 0.433567 0.447790 0.431262 0.391267 0.397918
48 0.403091 0.408403 0.391186 0.372594 0.340422 0.364939
48 0.332590 0.307323 0.309821 0.316685 0.301471 0.309990
48 0.313244 0.308304 0.298739 0.318976 0.327273 0.362231
48 0.325550 0.357410 0.361473 0.385140 0.350755 0.413095
48 0.400220 0.372363 0.396400 0.411224 0.375128 0.400716
48 0.385419 0.397813 0.415265 0.430352 0.436569 0.474026
48 0.516360 0.532784 0.618060 0.673554 0.681131 0.734364
48 0.762644 0.877836 0.934587 1.045816 1.013639 1.128396
48 1.246500 1.218113 1.265480 1.273420 1.540097 1.389542
48 1.390633 1.449622 1.477785 1.532061 1.620890 1.567207
48 1.540939 1.517303 1.620230 1.627014 1.727034 1.634476
48 1.621287 1.557160 1.602077 1.588984 1.588132 1.544504
48 1.634453 1.584722 1.574789 1.472638 1.605376 1.597714
48 1.507282 1.612992 1.458609 1.532069 1.506666 1.432415
48 1.511382 1.588147 1.476790 1.430853 1.467916 1.431755
48 1.410305 1.367589 1.451529 1.379997 1.308636 1.312760
48 1.261475 1.250444 1.231018 1.188855 1.265731 1.195976
48 1.219346 1.144615 1.157021 1.111460 1.161211 1.102966
48 1.067842 1.015301 1.085910 1.032169 1.050652 1.020775
48 1.071533 1.046303 1.035123 0.986025 1.024853 1.071184
48 0.966713 1.005699 0.932787 1.055219 0.984583 1.033363
48 0.934366 1.077137 0.991427 1.027951 1.011329 0.993096
48 1.067432 0.929457 1.000483 1.016835 0.971420 0.958815
48 0.948261 0.897487 0.935428 0.943419 0.917959 0.897331
48 0.882370 0.884022 0.933985 0.811748 0.884655 0.870349
48 0.932983 0.884354 0.936641 0.811456 0.906724 0.904796
48 0.950059 0.846510 0.907015 0.922399 0.909394 0.981624
48 0.931924 1.031286 1.003424 1.009089 1.003419 0.948628
48 0.982756 1.032165 1.045513 1.080323 1.015857 1.007742
48 1.088115 1.025838 1.105598 1.127957 1.104043 1.076532
48 1.101808 1.134114 1.116081 1.222250 1.086521 1.093632
48 1.102579 1.128394 1.062597 1.143127 1.150628 1.194344
48 1.220054 1.149679 1.263477 1.318144 1.229051 1.327700
48 1.268388 1.368046 1.332511 1.202787 1.290694 1.350059
48 1.301588 1.301445 1.371945 1.269829 1.308353 1.324196
48 1.289150 1.304500 1.344723 1.325513 1.259588 1.243219
48 1.258967 1.299878 1.291716 1.257269 1.270114 1.222853
48 1.324521 1.301237 1.237943 1.305064 1.372997 1.263333
48 1.368387 1.280536 1.304009 1.294344 1.355844 1.285519
48 1.211913 1.195164 1.174799 1.155621 1.230626 1.168279
48 1.196121 1.150432 1.130133 1.124867 1.157934 1.145002
48 1.096118 1.012770 1.053688 1.025703 0.977967 0.912057
48 0.963506

[CURVES]
;ID         X-Value      Y-Value     

[CONTROLS]

[RULES]

[ENERGY]
GLOBAL EFFICIENCY      75.0000
GLOBAL PRICE           0.0000
DEMAND CHARGE          0.0000

[EMITTERS]
;ID        Flow coefficient

[QUALITY]

[SOURCES]
;Node      Type       Quality    Pattern   

[REACTIONS]
;Type           Pipe/Tank               Coefficient

 ORDER BULK 1
 ORDER TANK 1
 ORDER WALL 1
 GLOBAL BULK 0.0000    
 GLOBAL WALL 0.0000    
 LIMITING POTENTIAL 0.0000    
 ROUGHNESS CORRELATION 0.0000    

[MIXING]
;Tank ID             Model Fraction

[TIMES]
DURATION             168:00:00
HYDRAULIC TIMESTEP   00:05:00
QUALITY TIMESTEP     00:05:00
PATTERN TIMESTEP     00:05:00
PATTERN START        00:00:00
REPORT TIMESTEP      00:05:00
REPORT START         00:00:00
START CLOCKTIME      00:00:00 AM
RULE TIMESTEP        00:06:00
STATISTIC            NONE      

[REPORT]
 Status             	No
 Summary            	No
 Page               	0
 Nodes					ALL
 Links					ALL
 Flow					Yes
 Headloss				No
 Velocity 				No
 Demand 				Yes
 Head 					Yes
 Pressure 				Yes
 Quality 				No
 State 					Yes

[OPTIONS]
UNITS                CMH                 
HEADLOSS             H-W                 
SPECIFIC GRAVITY     1
VISCOSITY            1
TRIALS               40
ACCURACY             0.001
CHECKFREQ            2
MAXCHECK             10
UNBALANCED           CONTINUE 10
DEMAND MULTIPLIER    1
DEMAND MODEL         PDA
MINIMUM PRESSURE     0.00
REQUIRED PRESSURE    0.10
PRESSURE EXPONENT    0.5
EMITTER EXPONENT     0.5
QUALITY              NONE                
DIFFUSIVITY          1
TOLERANCE            0.01

[COORDINATES]
;Node      X-Coord    Y-Coord   
1                4000.000000000       7000.000000000
2                5000.000000000       7000.000000000
3                4000.000000000       6000.000000000
4                5000.000000000       6000.000000000
5                4000.000000000       5000.000000000
6                5000.000000000       5000.000000000
7                6000.000000000       7000.000000000

[VERTICES]
;Link      X-Coord    Y-Coord   

[LABELS]

[BACKDROP]
DIMENSIONS    2900.000    4900.000    5100.000    7100.000
UNITS    METERS
OFFSET    0.00    0.00

[END]
