; Filename: D:/OneDrive/IHE_HI/015. Thesis/Github_repositories\Msc-Thesis/INP_FILES/Twoloops_Base_WNTR.inp
; WNTR: 0.3.1
; Created: 2023-03-01 15:17:04
[TITLE]

[JUNCTIONS]
;ID                      Elevation       Demand Pattern                 
 1                                160             100 18                         ;
 2                                150             100 18                         ;
 3                                150             270 18                         ;
 4                                155             120 18                         ;
 5                                160             200 18                         ;
 6                                165             330 18                         ;

[RESERVOIRS]
;ID                                   Head                  Pattern
 7                                210                            ;

[TANKS]
;ID                              Elevation           Init Level            Min Level            Max Level             Diameter           Min Volume Volume Curve         Overflow            

[PIPES]
;ID                   Node1                Node2                              Length             Diameter            Roughness           Minor Loss               Status
 1                    2                    1                               1000             200             130               0                 Open   ;
 2                    1                    3                               1000             150             130               0                 Open   ;
 3                    2                    4                               1000             450             130               0                 Open   ;
 4                    4                    3                               1000             150             130               0                 Open   ;
 5                    5                    3                               1000             150             130               0                 Open   ;
 6                    4                    6                               1000             400             130               0                 Open   ;
 7                    6                    5                               1000             250             130               0                 Open   ;
 8                    7                    2                               1000             450             130               0                 Open   ;

[PUMPS]
;ID                   Node1                Node2                Properties          

[VALVES]
;ID                   Node1                Node2                            Diameter Type              Setting           Minor Loss

[TAGS]
;type      name       tag       

[DEMANDS]
;ID        Demand     Pattern   

[STATUS]
;ID        Setting   
[PATTERNS]
;ID        Multipliers

18 0.931753 0.716621 0.611745 0.563228 0.518676 0.448847
18 0.407601 0.328753 0.299381 0.351061 0.401152 0.414147
18 0.507610 0.819019 1.210653 1.476723 1.647811 1.621055
18 1.610018 1.532990 1.423410 1.427156 1.322475 1.175198
18 1.149935 1.002117 1.000915 0.999782 1.030656 0.981731
18 0.902789 0.888311 0.884020 0.907297 0.993042 1.055255
18 1.127066 1.175008 1.190704 1.250764 1.272738 1.269487
18 1.255637 1.353574 1.286749 1.258791 1.169933 1.096877
18 0.870950 0.707907 0.589254 0.543240 0.494892 0.446986
18 0.399775 0.332576 0.300399 0.350308 0.394925 0.399522
18 0.493275 0.811156 1.180484 1.416287 1.605678 1.614654
18 1.547834 1.574067 1.472781 1.410204 1.318956 1.195982
18 1.125067 1.006649 1.008047 0.989794 0.982584 0.942663
18 0.894392 0.882634 0.879027 0.961743 1.009313 1.019644
18 1.132742 1.190923 1.228291 1.253844 1.272160 1.334150
18 1.289517 1.334597 1.305415 1.294723 1.208553 1.095345
18 0.900189 0.736324 0.601523 0.543402 0.518832 0.445455
18 0.389836 0.336144 0.292961 0.361737 0.396691 0.396426
18 0.519229 0.841224 1.244821 1.493516 1.572441 1.689915
18 1.591424 1.584662 1.528418 1.404374 1.315966 1.214907
18 1.108281 1.009444 1.005965 1.030161 0.986109 0.950850
18 0.892167 0.914251 0.912101 0.952422 0.984602 1.063311
18 1.085165 1.148146 1.184740 1.275396 1.314991 1.301152
18 1.310296 1.274267 1.261227 1.281078 1.204000 1.093800
18 0.942897 0.724361 0.589046 0.551111 0.486841 0.453569
18 0.399454 0.341050 0.295531 0.342447 0.399212 0.397102
18 0.511266 0.799384 1.172461 1.454089 1.584063 1.690549
18 1.630381 1.562362 1.463237 1.432531 1.273994 1.156050
18 1.126137 1.038682 1.018417 1.009936 1.017137 0.941287
18 0.881384 0.893662 0.885539 0.931694 0.990889 1.052333
18 1.092212 1.115863 1.184553 1.202415 1.316256 1.264730
18 1.271286 1.304106 1.280771 1.309108 1.168971 1.085851
18 0.899293 0.694323 0.606279 0.537219 0.507718 0.465335
18 0.417306 0.338565 0.297785 0.346535 0.408797 0.407716
18 0.506401 0.790609 1.199416 1.445281 1.608958 1.624538
18 1.629126 1.569526 1.523590 1.395600 1.275444 1.183122
18 1.099626 1.039966 1.045186 1.002691 0.980881 0.947105
18 0.891655 0.890133 0.872266 0.945918 1.003130 1.056850
18 1.086859 1.141956 1.165823 1.245957 1.285886 1.317467
18 1.269939 1.323101 1.338857 1.217344 1.210230 1.094705
18 0.888526 0.705283 0.598405 0.535858 0.496910 0.442450
18 0.409219 0.336871 0.295120 0.337990 0.404169 0.397807
18 0.501420 0.811813 1.216597 1.487317 1.576781 1.582699
18 1.549346 1.578671 1.464334 1.394461 1.284496 1.191651
18 1.057402 1.036036 1.010478 1.005314 0.993782 0.955562
18 0.907183 0.832754 0.935206 0.952093 0.986952 1.043740
18 1.110862 1.144751 1.151264 1.310330 1.297126 1.333254
18 1.282007 1.342777 1.307445 1.285381 1.174914 1.106245
18 0.912417 0.729442 0.592463 0.533882 0.523039 0.448090
18 0.398912 0.337249 0.300586 0.352262 0.396804 0.405420
18 0.486935 0.844126 1.197164 1.446978 1.621324 1.612735
18 1.557304 1.517624 1.520813 1.404245 1.296524 1.218618
18 1.075210 1.017056 0.992302 1.005433 0.999157 0.948232
18 0.898891 0.879751 0.887047 0.929362 1.005490 1.033221
18 1.074538 1.140249 1.196216 1.315168 1.281678 1.331244
18 1.319427 1.271769 1.320105 1.239849 1.136180 1.093180
18 0.868394 0.717343 0.591792 0.556960 0.510685 0.453644
18 0.394497 0.321744 0.297354 0.346249 0.397082 0.403703
18 0.505785 0.822745 1.181661 1.424751 1.643665 1.605289
18 1.579127 1.543374 1.444708 1.395274 1.287529 1.207706
18 1.115366 1.032217 1.018637 1.010363 0.999686 0.956774
18 0.896568 0.874681 0.895181 0.923410 1.005609 1.031071
18 1.118516 1.141691 1.201188 1.270801 1.316726 1.265552
18 1.294621 1.325680 1.255849 1.279754 1.145866 1.057994
18 0.900695 0.687376 0.588174 0.523200 0.516481 0.459299
18 0.404538 0.328282 0.297879 0.336945 0.397665 0.396313
18 0.508579 0.835677 1.235198 1.491947 1.580843 1.591406
18 1.624533 1.570745 1.446944 1.418757 1.321178 1.194311
18 1.095929 1.015467 0.971069 1.019602 0.993818 0.949251
18 0.931189 0.893713 0.906675 0.947407 1.030400 1.088144
18 1.120449 1.160777 1.149730 1.261486 1.296617 1.309050
18 1.324519 1.231365 1.285198 1.276773 1.188796 1.049475
18 0.915641 0.714868 0.588347 0.542462 0.508216 0.457844
18 0.406405 0.330267 0.297629 0.340128 0.399313 0.404006
18 0.508758 0.815150 1.210978 1.438633 1.574956 1.624140
18 1.566252 1.585217 1.513894 1.416604 1.308812 1.241123
18 1.089685 0.986695 1.003986 1.002524 0.989650 0.935034
18 0.892095 0.884841 0.890949 0.990305 0.980790 1.035279
18 1.049650 1.153187 1.151606 1.244796 1.292833 1.288049
18 1.345211 1.328656 1.334298 1.247506 1.227086 1.090797
18 0.913885 0.725569 0.589095 0.534494 0.508626 0.433481
18 0.412107 0.333399 0.299726 0.349738 0.391761 0.399625
18 0.511003 0.838242 1.264709 1.464765 1.578926 1.610993
18 1.567423 1.557203 1.511482 1.407776 1.328505 1.187317
18 1.092356 1.020140 0.967347 0.972073 0.976417 0.978528
18 0.916115 0.905888 0.876020 0.907527 0.986799 1.055665
18 1.110971 1.171465 1.206823 1.302231 1.294212 1.282735
18 1.256288 1.279585 1.306295 1.247346 1.222482 1.110591
18 0.857347 0.723217 0.573125 0.543397 0.512249 0.458389
18 0.389762 0.325890 0.298430 0.346933 0.398377 0.401557
18 0.502135 0.797282 1.194192 1.511478 1.587691 1.613285
18 1.634502 1.479804 1.535441 1.390937 1.304262 1.195203
18 1.120734 1.026615 0.986439 1.029588 0.952717 0.954092
18 0.875737 0.868214 0.936203 0.943880 1.003901 1.014483
18 1.083961 1.151926 1.208514 1.273898 1.300224 1.320367
18 1.311798 1.255073 1.300962 1.289421 1.214157 1.072222
18 0.885499 0.695031 0.598427 0.551284 0.480482 0.451753
18 0.390882 0.334928 0.296674 0.344924 0.398264 0.406027
18 0.496076 0.767255 1.213039 1.479815 1.592975 1.592443
18 1.611257 1.571461 1.485899 1.402635 1.275816 1.188644
18 1.065891 1.040754 0.981113 1.008318 0.971881 0.942450
18 0.898011 0.852360 0.902073 0.937559 0.965153 1.024546
18 1.113313 1.167967 1.196834 1.268559 1.305820 1.315209
18 1.333436 1.263482 1.317588 1.260215 1.194618 1.073553
18 0.893247 0.693497 0.602200 0.557083 0.499439 0.457783
18 0.394502 0.328976 0.302797 0.345624 0.396370 0.405688
18 0.490820 0.821157 1.219688 1.506833 1.597108 1.672255
18 1.633101 1.528557 1.463462 1.400149 1.326752 1.191180
18 1.086786 1.064182 1.005738 0.956963 1.006343 0.963624
18 0.904061 0.889573 0.898789 0.919812 0.992586 1.032070
18 1.079480 1.118430 1.210860 1.260836 1.288348 1.289627
18 1.299391 1.330865 1.247890 1.279490 1.186903 1.039372
18 0.864977 0.697953 0.602634 0.543306 0.490610 0.467107
18 0.411384 0.332363 0.296452 0.356032 0.406043 0.409423
18 0.493435 0.770713 1.250803 1.419673 1.598855 1.705238
18 1.610578 1.589241 1.454928 1.358655 1.286150 1.218928
18 1.092383 1.015735 1.003959 1.025254 0.971101 0.930614
18 0.885804 0.900945 0.904227 0.985009 1.018729 1.051227
18 1.127832 1.152269 1.183082 1.275486 1.281896 1.299007
18 1.334522 1.300108 1.279118 1.258124 1.224523 1.068146
18 0.893036 0.703676 0.602207 0.534912 0.483982 0.449672
18 0.392538 0.337950 0.304876 0.352292 0.395957 0.395876
18 0.494925 0.799843 1.259933 1.401059 1.618048 1.585916
18 1.596661 1.528813 1.464671 1.376616 1.345630 1.189732
18 1.083155 1.043612 1.000207 1.017991 0.963515 0.959495
18 0.913909 0.852344 0.908068 0.976771 0.999703 1.069247
18 1.114753 1.131180 1.200954 1.218935 1.288266 1.313538
18 1.318801 1.303388 1.318720 1.241906 1.197559 1.080499
18 0.933293 0.707887 0.594012 0.539298 0.490809 0.459560
18 0.397080 0.317937 0.299648 0.345991 0.386941 0.401901
18 0.514894 0.825550 1.214686 1.427576 1.615261 1.632566
18 1.616929 1.572814 1.459207 1.407574 1.280295 1.191710
18 1.080257 1.059232 0.982821 0.985497 1.001492 0.933160
18 0.892356 0.867009 0.925401 0.959570 0.998851 1.043734
18 1.120700 1.156714 1.211953 1.257713 1.256106 1.303656
18 1.286155 1.319554 1.326308 1.253207 1.211241 1.117580
18 0.887981 0.734846 0.589769 0.539316 0.499889 0.457901
18 0.393299 0.325852 0.295994 0.350479 0.402640 0.420358
18 0.513710 0.808700 1.207797 1.496188 1.600979 1.625467
18 1.601650 1.586684 1.474550 1.399565 1.312231 1.200336
18 1.105271 1.024505 1.019451 1.046368 1.008128 0.950020
18 0.913603 0.872137 0.886506 0.945343 0.948344 1.027687
18 1.092345 1.116358 1.175217 1.247380 1.257283 1.295984
18 1.286083 1.303409 1.330009 1.274299 1.200505 1.082231
18 0.904093 0.696475 0.598623 0.542397 0.486292 0.465721
18 0.408651 0.325587 0.298552 0.342086 0.405595 0.393900
18 0.497775 0.802996 1.201223 1.414293 1.642447 1.596331
18 1.601917 1.553002 1.477137 1.383728 1.324346 1.180364
18 1.105966 1.015594 0.987056 1.013018 1.018608 0.950360
18 0.874405 0.916873 0.884582 0.915595 1.051888 1.043465
18 1.067842 1.131732 1.208821 1.263162 1.277855 1.354226
18 1.286439 1.271880 1.324978 1.303674 1.180380 1.049811
18 0.918548 0.681822 0.585281 0.549499 0.499446 0.455379
18 0.402823 0.328743 0.292208 0.357089 0.410600 0.404094
18 0.500451 0.855262 1.193366 1.459318 1.611663 1.675632
18 1.650969 1.551566 1.509250 1.369914 1.291889 1.172857
18 1.077850 1.066851 0.984154 0.992869 1.007317 0.978459
18 0.908660 0.930299 0.898656 0.949611 1.005512 1.082158
18 1.111159 1.144748 1.177260 1.264524 1.336435 1.295871
18 1.313753 1.309160 1.322452 1.249478 1.256320 1.052450
18 0.893420 0.724270 0.603561 0.548017 0.495039 0.457110
18 0.400098 0.340100 0.304143 0.353750 0.394737 0.410240
18 0.502256 0.839731 1.248337 1.457934 1.586998 1.599605
18 1.595405 1.547715 1.510785 1.404668 1.290598 1.218304
18 1.079367 1.041080 0.991881 1.018078 1.027705 0.947923
18 0.907939 0.884796 0.885610 0.949272 1.005782 1.060652
18 1.095635 1.149577 1.172457 1.249359 1.314455 1.329917
18 1.289020 1.305475 1.305929 1.275035 1.212979 1.040809
18 0.899112 0.714330 0.587996 0.557116 0.501616 0.472110
18 0.393676 0.323767 0.301346 0.336511 0.401720 0.403224
18 0.510157 0.828487 1.189981 1.434735 1.654794 1.601947
18 1.566543 1.525792 1.533519 1.394121 1.280404 1.196190
18 1.095447 1.018141 1.015080 1.024921 1.019706 0.968333
18 0.907247 0.850329 0.930047 0.950429 1.012163 1.075423
18 1.131534 1.157017 1.210453 1.243291 1.300860 1.284274
18 1.281282 1.279465 1.295943 1.296563 1.276103 1.084176
18 0.875729 0.728918 0.596391 0.531946 0.502098 0.446436
18 0.401780 0.329168 0.300590 0.350858 0.400540 0.402573
18 0.502843 0.823819 1.175244 1.424980 1.598028 1.581091
18 1.602801 1.588913 1.518213 1.379209 1.277633 1.200738
18 1.091171 1.025602 1.011938 0.983724 0.991975 0.938444
18 0.881224 0.866530 0.912194 0.945702 0.982417 1.047103
18 1.063946 1.130587 1.251590 1.256101 1.319023 1.304884
18 1.309052 1.320028 1.271280 1.269132 1.237893 1.062898
18 0.889804 0.706557 0.603228 0.544728 0.512674 0.462369
18 0.399504 0.338055 0.304225 0.337786 0.420211 0.416688
18 0.498318 0.823206 1.231785 1.461882 1.623371 1.663693
18 1.567526 1.540843 1.527642 1.421724 1.324019 1.189742
18 1.093642 0.990881 0.977080 1.004484 1.016491 0.963836
18 0.897692 0.876851 0.903909 0.946201 1.028091 1.055046
18 1.067413 1.118213 1.236450 1.228897 1.319877 1.299582
18 1.295586 1.299252 1.331756 1.265020 1.199200 1.047014
18 0.903720 0.718482 0.602870 0.554139 0.500552 0.460533
18 0.413188 0.319528 0.297265 0.358134 0.407489 0.407902
18 0.508327 0.822376 1.239158 1.478017 1.607676 1.632909
18 1.606172 1.523541 1.523120 1.405066 1.347370 1.191100
18 1.109260 1.037230 0.987489 1.023452 1.038101 0.953423
18 0.894591 0.875383 0.865937 0.941363 1.005020 1.074157
18 1.121121 1.137858 1.193356 1.286658 1.295490 1.293267
18 1.336205 1.329781 1.300489 1.254837 1.151715 1.092821
18 0.883865 0.683024 0.619018 0.546054 0.488610 0.446676
18 0.406968 0.323960 0.307777 0.352495 0.404293 0.405699
18 0.501915 0.831419 1.189102 1.469456 1.624062 1.646062
18 1.561760 1.544022 1.507584 1.397245 1.346141 1.183525
18 1.096431 1.048022 1.006611 1.000623 0.984870 0.959456
18 0.918704 0.890091 0.885993 0.977538 0.971068 1.018667
18 1.121132 1.152598 1.186812 1.230724 1.360341 1.309655
18 1.313889 1.311029 1.311305 1.283635 1.217578 1.071977
18 0.894750 0.686177 0.590636 0.541991 0.510450 0.463280
18 0.397274 0.321420 0.283336 0.356223 0.395286 0.398832
18 0.501316 0.794063 1.191605 1.526300 1.616172 1.639429
18 1.549360 1.629615 1.457316 1.462902 1.245009 1.226434
18 1.135597 1.015121 1.008452 1.014528 0.983724 0.926064
18 0.876281 0.891183 0.898468 0.934061 1.019335 1.062655
18 1.083380 1.119850 1.212558 1.244843 1.302579 1.347787
18 1.313061 1.280280 1.304177 1.245722 1.238605 1.067951
18 0.903731 0.715307 0.601911 0.517952 0.485536 0.453654
18 0.402555 0.328842 0.294257 0.338811 0.396788 0.398671
18 0.505128 0.811699 1.214465 1.449488 1.591809 1.616403
18 1.574964 1.579130 1.475592 1.394044 1.298099 1.161952
18 1.092851 1.017456 0.992237 1.002336 0.984002 0.949507
18 0.923556 0.881188 0.920615 0.951270 1.015483 1.035671
18 1.102308 1.150489 1.185297 1.237664 1.261253 1.345692
18 1.274718 1.337822 1.287845 1.248012 1.214940 1.066447
18 0.931753

[CURVES]
;ID         X-Value      Y-Value     

[CONTROLS]

[RULES]

[ENERGY]
GLOBAL EFFICIENCY      75.0000
GLOBAL PRICE           0.0000
DEMAND CHARGE          0.0000

[EMITTERS]
;ID        Flow coefficient

[QUALITY]

[SOURCES]
;Node      Type       Quality    Pattern   

[REACTIONS]
;Type           Pipe/Tank               Coefficient

 ORDER BULK 1
 ORDER TANK 1
 ORDER WALL 1
 GLOBAL BULK 0.0000    
 GLOBAL WALL 0.0000    
 LIMITING POTENTIAL 0.0000    
 ROUGHNESS CORRELATION 0.0000    

[MIXING]
;Tank ID             Model Fraction

[TIMES]
DURATION             672:00:00
HYDRAULIC TIMESTEP   00:30:00
QUALITY TIMESTEP     00:05:00
PATTERN TIMESTEP     00:30:00
PATTERN START        00:00:00
REPORT TIMESTEP      00:30:00
REPORT START         00:00:00
START CLOCKTIME      00:00:00 AM
RULE TIMESTEP        00:06:00
STATISTIC            NONE      

[REPORT]
 Status             	No
 Summary            	No
 Page               	0
 Nodes					ALL
 Links					ALL
 Flow					Yes
 Headloss				No
 Velocity 				No
 Demand 				Yes
 Head 					Yes
 Pressure 				Yes
 Quality 				No
 State 					Yes

[OPTIONS]
UNITS                CMH                 
HEADLOSS             H-W                 
SPECIFIC GRAVITY     1
VISCOSITY            1
TRIALS               40
ACCURACY             0.001
CHECKFREQ            2
MAXCHECK             10
UNBALANCED           CONTINUE 10
DEMAND MULTIPLIER    1
DEMAND MODEL         PDA
MINIMUM PRESSURE     0.00
REQUIRED PRESSURE    0.10
PRESSURE EXPONENT    0.5
EMITTER EXPONENT     0.5
QUALITY              NONE                
DIFFUSIVITY          1
TOLERANCE            0.01

[COORDINATES]
;Node      X-Coord    Y-Coord   
1                4000.000000000       7000.000000000
2                5000.000000000       7000.000000000
3                4000.000000000       6000.000000000
4                5000.000000000       6000.000000000
5                4000.000000000       5000.000000000
6                5000.000000000       5000.000000000
7                6000.000000000       7000.000000000

[VERTICES]
;Link      X-Coord    Y-Coord   

[LABELS]

[BACKDROP]
DIMENSIONS    2900.000    4900.000    5100.000    7100.000
UNITS    METERS
OFFSET    0.00    0.00

[END]
