; Filename: D:/OneDrive/IHE_HI/015. Thesis/Github_repositories\Msc-Thesis/INP_FILES/Twoloops_Base_WNTR.inp
; WNTR: 0.4.2
; Created: 2023-03-07 09:38:45
[TITLE]

[JUNCTIONS]
;ID                      Elevation       Demand Pattern                 
 1                                160             100 56                         ;
 2                                150             100 56                         ;
 3                                150             270 56                         ;
 4                                155             120 56                         ;
 5                                160             200 56                         ;
 6                                165             330 56                         ;

[RESERVOIRS]
;ID                                   Head                  Pattern
 7                                210                            ;

[TANKS]
;ID                              Elevation           Init Level            Min Level            Max Level             Diameter           Min Volume Volume Curve         Overflow            

[PIPES]
;ID                   Node1                Node2                              Length             Diameter            Roughness           Minor Loss               Status
 1                    2                    1                               1000             200             130               0                 Open   ;
 2                    1                    3                               1000             150             130               0                 Open   ;
 3                    2                    4                               1000             450             130               0                 Open   ;
 4                    4                    3                               1000             150             130               0                 Open   ;
 5                    5                    3                               1000             150             130               0                 Open   ;
 6                    4                    6                               1000             400             130               0                 Open   ;
 7                    6                    5                               1000             250             130               0                 Open   ;
 8                    7                    2                               1000             450             130               0                 Open   ;

[PUMPS]
;ID                   Node1                Node2                Properties          

[VALVES]
;ID                   Node1                Node2                            Diameter Type              Setting           Minor Loss

[TAGS]
;type      name       tag       

[DEMANDS]
;ID        Demand     Pattern   

[STATUS]
;ID        Setting   

[PATTERNS]
;ID        Multipliers

56 0.963506 0.722311 0.623490 0.587388 0.537351 0.439900
56 0.415201 0.327754 0.298761 0.353921 0.402305 0.425852
56 0.515221 0.821008 1.221305 1.486513 1.695621 1.614376
56 1.620036 1.506348 1.346821 1.445572 1.344951 1.157492
56 1.199869 0.972095 1.001830 0.996025 1.061311 1.009758
56 0.905578 0.894979 0.868040 0.869871 0.986084 1.058544
56 1.154133 1.202601 1.181408 1.243156 1.245475 1.232380
56 1.211274 1.404401 1.273498 1.247665 1.139866 1.113672
56 0.841900 0.704882 0.578509 0.547411 0.489784 0.436176
56 0.399549 0.335400 0.300798 0.352415 0.389851 0.396602
56 0.486551 0.805280 1.160969 1.365640 1.611355 1.601574
56 1.495667 1.588502 1.445562 1.411668 1.337913 1.199060
56 1.150134 0.981158 1.016094 0.976050 0.965168 0.931622
56 0.888784 0.883624 0.858055 0.978764 1.018626 0.987322
56 1.165483 1.234430 1.256581 1.249316 1.244321 1.361705
56 1.279035 1.366448 1.310830 1.319528 1.217106 1.110609
56 0.900378 0.761717 0.603046 0.547736 0.537663 0.433115
56 0.379672 0.342537 0.285923 0.375273 0.393382 0.390409
56 0.538459 0.865416 1.289643 1.520098 1.544882 1.752097
56 1.582848 1.609693 1.556835 1.400006 1.331932 1.236909
56 1.116563 0.986750 1.011930 1.056782 0.972217 0.947996
56 0.884334 0.946859 0.924203 0.960120 0.969203 1.074656
56 1.070329 1.148876 1.169479 1.292420 1.329983 1.295709
56 1.320592 1.245787 1.222455 1.292237 1.208000 1.107518
56 0.985793 0.737790 0.578092 0.563154 0.473682 0.449343
56 0.398908 0.352350 0.291063 0.336691 0.398425 0.391761
56 0.522533 0.781738 1.144922 1.441244 1.568126 1.753364
56 1.660763 1.565093 1.426474 1.456320 1.247989 1.119194
56 1.152273 1.045224 1.036834 1.016333 1.034273 0.928869
56 0.862767 0.905680 0.871077 0.918666 0.981779 1.052701
56 1.084424 1.084310 1.169106 1.146458 1.332512 1.222866
56 1.242572 1.305465 1.261543 1.348298 1.137943 1.091620
56 0.898586 0.677714 0.612559 0.535369 0.515436 0.472875
56 0.434612 0.347380 0.295570 0.344868 0.417595 0.412990
56 0.512803 0.764187 1.198832 1.423628 1.617915 1.621343
56 1.658251 1.579421 1.547180 1.382458 1.250889 1.173339
56 1.099251 1.047792 1.090372 1.001843 0.961762 0.940506
56 0.883311 0.898623 0.844531 0.947113 1.006260 1.061735
56 1.073718 1.136496 1.131645 1.233541 1.271771 1.328340
56 1.239879 1.343455 1.377713 1.164769 1.220460 1.109327
56 0.877052 0.699634 0.596811 0.532647 0.493820 0.427105
56 0.418437 0.343991 0.290240 0.327777 0.408337 0.393173
56 0.502839 0.806595 1.233194 1.507700 1.553562 1.537664
56 1.498692 1.597710 1.428668 1.380182 1.268992 1.190397
56 1.014804 1.039933 1.020956 1.007089 0.987565 0.957420
56 0.914366 0.783866 0.970413 0.959464 0.973904 1.035515
56 1.121725 1.142087 1.102527 1.362288 1.294252 1.359913
56 1.264013 1.382807 1.314890 1.300845 1.149828 1.132408
56 0.924833 0.747953 0.584926 0.528696 0.546078 0.438384
56 0.397825 0.344746 0.301173 0.356321 0.393609 0.408399
56 0.473869 0.871221 1.194328 1.427023 1.642649 1.597737
56 1.514607 1.475616 1.541626 1.399749 1.293048 1.244331
56 1.050420 1.001973 0.984605 1.007327 0.998313 0.942760
56 0.897781 0.877859 0.874094 0.914001 1.010981 1.014477
56 1.049076 1.133082 1.192432 1.371964 1.263356 1.355894
56 1.338854 1.240791 1.340209 1.209781 1.072360 1.106277
56 0.963506

[CURVES]
;ID         X-Value      Y-Value     

[CONTROLS]

[RULES]

[ENERGY]
GLOBAL EFFICIENCY      75.0000
GLOBAL PRICE           0.0000
DEMAND CHARGE          0.0000

[EMITTERS]
;ID        Flow coefficient

[QUALITY]

[SOURCES]
;Node      Type       Quality    Pattern   

[REACTIONS]
;Type           Pipe/Tank               Coefficient

 ORDER BULK 1
 ORDER TANK 1
 ORDER WALL 1
 GLOBAL BULK 0.0000    
 GLOBAL WALL 0.0000    
 LIMITING POTENTIAL 0.0000    
 ROUGHNESS CORRELATION 0.0000    

[MIXING]
;Tank ID             Model Fraction

[TIMES]
DURATION             168:00:00
HYDRAULIC TIMESTEP   00:30:00
QUALITY TIMESTEP     00:05:00
PATTERN TIMESTEP     00:30:00
PATTERN START        00:00:00
REPORT TIMESTEP      00:30:00
REPORT START         00:00:00
START CLOCKTIME      00:00:00 AM
RULE TIMESTEP        00:06:00
STATISTIC            NONE      

[REPORT]
 Status             	No
 Summary            	No
 Page               	0
 Nodes					ALL
 Links					ALL
 Flow					Yes
 Headloss				No
 Velocity 				No
 Demand 				Yes
 Head 					Yes
 Pressure 				Yes
 Quality 				No
 State 					Yes

[OPTIONS]
UNITS                CMH                 
HEADLOSS             H-W                 
SPECIFIC GRAVITY     1
VISCOSITY            1
TRIALS               40
ACCURACY             0.001
CHECKFREQ            2
MAXCHECK             10
UNBALANCED           CONTINUE 10
DEMAND MULTIPLIER    1
DEMAND MODEL         PDA
MINIMUM PRESSURE     0.00
REQUIRED PRESSURE    0.10
PRESSURE EXPONENT    0.5
EMITTER EXPONENT     0.5
QUALITY              NONE                
DIFFUSIVITY          1
TOLERANCE            0.01

[COORDINATES]
;Node      X-Coord    Y-Coord   
1                4000.000000000       7000.000000000
2                5000.000000000       7000.000000000
3                4000.000000000       6000.000000000
4                5000.000000000       6000.000000000
5                4000.000000000       5000.000000000
6                5000.000000000       5000.000000000
7                6000.000000000       7000.000000000

[VERTICES]
;Link      X-Coord    Y-Coord   

[LABELS]

[BACKDROP]
DIMENSIONS    2900.000    4900.000    5100.000    7100.000
UNITS    METERS
OFFSET    0.00    0.00

[END]
