; Filename: D:/OneDrive/IHE_HI/015. Thesis/Github_repositories\Msc-Thesis/INP_FILES/Twoloops_Base_WNTR.inp
; WNTR: 0.4.2
; Created: 2023-03-07 09:38:38
[TITLE]

[JUNCTIONS]
;ID                      Elevation       Demand Pattern                 
 1                                160             100 52                         ;
 2                                150             100 52                         ;
 3                                150             270 52                         ;
 4                                155             120 52                         ;
 5                                160             200 52                         ;
 6                                165             330 52                         ;

[RESERVOIRS]
;ID                                   Head                  Pattern
 7                                210                            ;

[TANKS]
;ID                              Elevation           Init Level            Min Level            Max Level             Diameter           Min Volume Volume Curve         Overflow            

[PIPES]
;ID                   Node1                Node2                              Length             Diameter            Roughness           Minor Loss               Status
 1                    2                    1                               1000             200             130               0                 Open   ;
 2                    1                    3                               1000             150             130               0                 Open   ;
 3                    2                    4                               1000             450             130               0                 Open   ;
 4                    4                    3                               1000             150             130               0                 Open   ;
 5                    5                    3                               1000             150             130               0                 Open   ;
 6                    4                    6                               1000             400             130               0                 Open   ;
 7                    6                    5                               1000             250             130               0                 Open   ;
 8                    7                    2                               1000             450             130               0                 Open   ;

[PUMPS]
;ID                   Node1                Node2                Properties          

[VALVES]
;ID                   Node1                Node2                            Diameter Type              Setting           Minor Loss

[TAGS]
;type      name       tag       

[DEMANDS]
;ID        Demand     Pattern   

[STATUS]
;ID        Setting   

[PATTERNS]
;ID        Multipliers

52 0.963506 0.806648 0.738764 0.705493 0.644821 0.542955
52 0.559555 0.515420 0.497936 0.488152 0.460433 0.456525
52 0.412177 0.365672 0.335605 0.309806 0.317929 0.314654
52 0.352562 0.367062 0.359152 0.411941 0.416357 0.414534
52 0.545395 0.599317 0.818527 1.006618 1.273573 1.431093
52 1.476026 1.572177 1.543182 1.495558 1.605081 1.627465
52 1.678739 1.657077 1.535468 1.514868 1.437087 1.375047
52 1.312593 1.461009 1.273498 1.223537 1.133126 1.179576
52 1.028988 1.053229 0.995169 1.026585 0.979568 0.952122
52 1.002408 1.023230 1.002661 0.992967 0.929506 0.911046
52 0.875791 0.872933 0.852967 0.825559 0.906387 0.905183
52 0.883119 0.990111 0.963708 1.028776 1.082645 1.081859
52 1.150134 1.067971 1.165882 1.140539 1.158202 1.201041
52 1.242690 1.285932 1.239412 1.354032 1.330933 1.222888
52 1.377389 1.399177 1.364173 1.294189 1.244321 1.343683
52 1.249438 1.301235 1.209997 1.191732 1.095478 1.026409
52 0.900378 0.850655 0.714541 0.657868 0.645196 0.534581
52 0.511673 0.538667 0.476538 0.517602 0.450221 0.418530
52 0.430767 0.385451 0.354384 0.316805 0.289665 0.341496
52 0.344469 0.392245 0.415156 0.398957 0.412327 0.442976
52 0.507529 0.608352 0.826778 1.068021 1.166661 1.343560
52 1.441400 1.663312 1.643027 1.650723 1.577605 1.652237
52 1.556843 1.583049 1.519964 1.574901 1.534595 1.445707
52 1.431056 1.296002 1.222455 1.267248 1.200858 1.173057
52 1.204858 1.102400 0.994453 1.056109 0.947364 0.980864
52 1.000800 1.074939 0.970210 0.948665 0.949949 0.899925
52 0.940559 0.847412 0.841177 0.871263 0.882071 0.990973
52 0.980600 0.975520 0.950983 1.061317 1.009878 1.009800
52 1.152273 1.137705 1.189680 1.187612 1.241128 1.197492
52 1.206314 1.318030 1.258223 1.270891 1.282787 1.303865
52 1.281592 1.229021 1.269208 1.187637 1.332512 1.206682
52 1.213819 1.243162 1.164501 1.217715 1.024227 1.008860
52 0.898586 0.756844 0.725812 0.643015 0.618523 0.583655
52 0.585714 0.546282 0.492616 0.475665 0.477932 0.442737
52 0.410242 0.340364 0.329430 0.296700 0.303359 0.316012
52 0.360879 0.384868 0.412581 0.393956 0.387238 0.420210
52 0.499660 0.645986 0.890868 1.012497 1.154115 1.332945
52 1.439731 1.578578 1.501389 1.628360 1.637924 1.632371
52 1.561772 1.565990 1.470791 1.503152 1.467428 1.482116
52 1.343590 1.397606 1.377713 1.142245 1.213244 1.174973
52 1.071953 1.045388 1.026653 0.998898 0.987639 0.932320
52 1.049796 1.049438 0.967465 0.923549 0.973582 0.903168
52 0.905110 0.874358 0.906031 0.911438 0.873878 0.869062
52 0.884905 0.995850 0.952446 1.005830 1.026873 1.074043
52 1.014804 1.131946 1.171460 1.176809 1.185077 1.234299
52 1.278458 1.140754 1.401707 1.327332 1.272498 1.282578
52 1.325675 1.294509 1.196928 1.411220 1.294252 1.341916
52 1.234764 1.316813 1.213744 1.174858 1.034924 1.046555
52 0.924833 0.835284 0.693071 0.635000 0.655294 0.541084
52 0.536137 0.542142 0.501954 0.491463 0.450481 0.437815
52 0.379096 0.388037 0.328192 0.297407 0.307997 0.311410
52 0.329618 0.359573 0.411100 0.398883 0.400289 0.445634
52 0.477463 0.617737 0.804453 1.018039 1.197976 1.336140
52 1.463318 1.542103 1.553945 1.571430 1.645607 1.559714
52 1.525929 1.561287 1.549795 1.671830 1.457718 1.512859
52 1.450845 1.290804 1.340209 1.186386 1.066019 1.171743
52 1.022741 1.081429 1.003899 1.078048 1.042740 0.981192
52 0.975928 0.957140 0.982363 0.970095 0.939792 0.930254
52 0.920827 0.898058 0.854695 0.835793 0.949123 0.894598
52 0.920073 0.951850 0.926277 1.007014 1.031782 1.103014
52 1.130732 1.123632 1.190184 1.188608 1.199247 1.237424
52 1.248776 1.262785 1.286078 1.247969 1.321252 1.251194
52 1.343765 1.287572 1.305326 1.329321 1.333452 1.208303
52 1.259408 1.284251 1.118491 1.164694 0.982634 0.957370
52 0.901391 0.741327 0.682907 0.609339 0.639555 0.568754
52 0.551301 0.513941 0.492931 0.449211 0.452451 0.418288
52 0.413727 0.380511 0.349095 0.316151 0.292816 0.303096
52 0.358880 0.385462 0.371703 0.407154 0.415554 0.428224
52 0.496299 0.615778 0.769757 1.046678 1.185163 1.339028
52 1.568605 1.591155 1.623733 1.633480 1.726700 1.728598
52 1.659488 1.617857 1.428959 1.540999 1.492194 1.463333
52 1.461881 1.206739 1.270396 1.258805 1.170629 1.079160
52 1.138234 1.074033 0.992046 1.023670 1.032863 0.999526
52 1.035675 1.009143 0.984191 0.935597 0.950426 0.931644
52 0.931530 0.881593 0.897774 0.852577 0.871825 0.915906
52 0.904870 1.004011 1.018525 1.038104 1.066226 1.163316
52 1.079370 1.024533 1.156563 1.170288 1.175159 1.181370
52 1.236266 1.292356 1.273854 1.433056 1.256396 1.261618
52 1.180992 1.313632 1.197672 1.275442 1.285665 1.252701
52 1.358247 1.289918 1.263319 1.106444 1.128841 1.018001
52 0.927771 0.826633 0.685089 0.636468 0.620702 0.505021
52 0.571700 0.530033 0.499086 0.484500 0.438935 0.425390
52 0.417605 0.382795 0.365314 0.304821 0.292097 0.310731
52 0.334023 0.378862 0.406124 0.400896 0.420090 0.423215
52 0.493051 0.621540 0.763675 0.950609 1.143400 1.422014
52 1.519465 1.633929 1.514738 1.496349 1.584758 1.628725
52 1.631916 1.647312 1.577366 1.640300 1.486644 1.404609
52 1.314005 1.307066 1.312590 1.201089 1.237603 1.208626
52 0.995738 1.098983 0.939676 1.027175 1.048995 1.001907
52 0.952170 0.982436 0.989534 0.973945 0.945964 0.920396
52 0.907685 0.842855 0.873108 0.940649 0.886153 0.903636
52 0.985467 0.872603 1.047255 1.000693 1.058863 1.080453
52 1.141469 1.111437 1.116296 1.233539 1.086520 1.230509
52 1.190525 1.243964 1.404585 1.304607 1.316790 1.210102
52 1.262090 1.310774 1.321233 1.335737 1.300449 1.316482
52 1.292968 1.149776 1.201776 1.182156 1.105567 0.983669
52 0.870997 0.758425 0.707205 0.676802 0.553157 0.550128
52 0.514491 0.534842 0.488914 0.471223 0.453823 0.439115
52 0.393722 0.319561 0.336917 0.311094 0.297366 0.303500
52 0.353102 0.385811 0.392479 0.397965 0.387468 0.424165
52 0.468991 0.646958 0.786168 1.023871 1.132514 1.319748
52 1.460451 1.445870 1.607369 1.599617 1.514290 1.533038
52 1.638728 1.637673 1.551402 1.558237 1.513431 1.477076
52 1.481206 1.273562 1.335176 1.226330 1.182204 1.130167
52 1.083494 1.010167 1.039708 1.078508 0.997755 0.999259
52 0.975950 1.001267 1.018647 0.966568 0.936393 0.939371
52 0.866952 0.894616 0.910572 0.935033 0.896746 0.970294
52 0.983812 0.933378 0.951282 1.014119 1.095262 1.073194
52 1.073571 1.193218 1.160584 1.063810 1.215224 1.255085
52 1.269728 1.306129 1.296502 1.238016 1.287221 1.253671
52 1.251497 1.234842 1.326326 1.308676 1.276695 1.255815
52 1.268728 1.294126 1.103798 1.164216 1.056506 0.922949
52 0.963506

[CURVES]
;ID         X-Value      Y-Value     

[CONTROLS]

[RULES]

[ENERGY]
GLOBAL EFFICIENCY      75.0000
GLOBAL PRICE           0.0000
DEMAND CHARGE          0.0000

[EMITTERS]
;ID        Flow coefficient

[QUALITY]

[SOURCES]
;Node      Type       Quality    Pattern   

[REACTIONS]
;Type           Pipe/Tank               Coefficient

 ORDER BULK 1
 ORDER TANK 1
 ORDER WALL 1
 GLOBAL BULK 0.0000    
 GLOBAL WALL 0.0000    
 LIMITING POTENTIAL 0.0000    
 ROUGHNESS CORRELATION 0.0000    

[MIXING]
;Tank ID             Model Fraction

[TIMES]
DURATION             168:00:00
HYDRAULIC TIMESTEP   00:15:00
QUALITY TIMESTEP     00:05:00
PATTERN TIMESTEP     00:15:00
PATTERN START        00:00:00
REPORT TIMESTEP      00:15:00
REPORT START         00:00:00
START CLOCKTIME      00:00:00 AM
RULE TIMESTEP        00:06:00
STATISTIC            NONE      

[REPORT]
 Status             	No
 Summary            	No
 Page               	0
 Nodes					ALL
 Links					ALL
 Flow					Yes
 Headloss				No
 Velocity 				No
 Demand 				Yes
 Head 					Yes
 Pressure 				Yes
 Quality 				No
 State 					Yes

[OPTIONS]
UNITS                CMH                 
HEADLOSS             H-W                 
SPECIFIC GRAVITY     1
VISCOSITY            1
TRIALS               40
ACCURACY             0.001
CHECKFREQ            2
MAXCHECK             10
UNBALANCED           CONTINUE 10
DEMAND MULTIPLIER    1
DEMAND MODEL         PDA
MINIMUM PRESSURE     0.00
REQUIRED PRESSURE    0.10
PRESSURE EXPONENT    0.5
EMITTER EXPONENT     0.5
QUALITY              NONE                
DIFFUSIVITY          1
TOLERANCE            0.01

[COORDINATES]
;Node      X-Coord    Y-Coord   
1                4000.000000000       7000.000000000
2                5000.000000000       7000.000000000
3                4000.000000000       6000.000000000
4                5000.000000000       6000.000000000
5                4000.000000000       5000.000000000
6                5000.000000000       5000.000000000
7                6000.000000000       7000.000000000

[VERTICES]
;Link      X-Coord    Y-Coord   

[LABELS]

[BACKDROP]
DIMENSIONS    2900.000    4900.000    5100.000    7100.000
UNITS    METERS
OFFSET    0.00    0.00

[END]
