; Filename: D:/OneDrive/IHE_HI/015. Thesis/Github_repositories\Msc-Thesis/INP_FILES/Twoloops_Base_WNTR.inp
; WNTR: 0.4.2
; Created: 2023-03-07 09:41:05
[TITLE]

[JUNCTIONS]
;ID                      Elevation       Demand Pattern                 
 1                                160             100 76                         ;
 2                                150             100 76                         ;
 3                                150             270 76                         ;
 4                                155             120 76                         ;
 5                                160             200 76                         ;
 6                                165             330 76                         ;

[RESERVOIRS]
;ID                                   Head                  Pattern
 7                                210                            ;

[TANKS]
;ID                              Elevation           Init Level            Min Level            Max Level             Diameter           Min Volume Volume Curve         Overflow            

[PIPES]
;ID                   Node1                Node2                              Length             Diameter            Roughness           Minor Loss               Status
 1                    2                    1                               1000             200             130               0                 Open   ;
 2                    1                    3                               1000             150             130               0                 Open   ;
 3                    2                    4                               1000             450             130               0                 Open   ;
 4                    4                    3                               1000             150             130               0                 Open   ;
 5                    5                    3                               1000             150             130               0                 Open   ;
 6                    4                    6                               1000             400             130               0                 Open   ;
 7                    6                    5                               1000             250             130               0                 Open   ;
 8                    7                    2                               1000             450             130               0                 Open   ;

[PUMPS]
;ID                   Node1                Node2                Properties          

[VALVES]
;ID                   Node1                Node2                            Diameter Type              Setting           Minor Loss

[TAGS]
;type      name       tag       

[DEMANDS]
;ID        Demand     Pattern   

[STATUS]
;ID        Setting   

[PATTERNS]
;ID        Multipliers

76 0.963506 0.609604 0.519575 0.435854 0.322411 0.384364
76 0.519002 1.192735 1.593394 1.626278 1.508643 1.375622
76 1.133486 1.004867 1.017755 0.912012 0.953787 0.991794
76 1.113775 1.159003 1.167245 1.333988 1.344951 1.164376
76 0.981711 0.565095 0.500915 0.397005 0.318393 0.423510
76 0.503099 1.218152 1.543182 1.473229 1.479125 1.308130
76 1.154133 1.048095 0.984507 0.889117 0.862252 0.943199
76 1.024924 1.293637 1.273498 1.277220 1.234855 1.237320
76 0.841900 0.594894 0.482091 0.406190 0.293870 0.381110
76 0.499436 1.220560 1.604257 1.619358 1.461941 1.281137
76 1.070412 0.985618 0.967474 0.837854 0.906387 0.983929
76 1.028271 1.222214 1.252820 1.302701 1.337913 1.206191
76 0.941018 0.570364 0.508047 0.389043 0.289550 0.390738
76 0.493769 1.202696 1.525430 1.657653 1.527940 1.220115
76 1.165483 1.075836 1.047151 0.893523 0.861453 1.042178
76 1.082260 1.258677 1.310830 1.350785 1.318531 1.233916
76 0.900378 0.642861 0.502538 0.406432 0.322598 0.378436
76 0.474590 1.246531 1.524920 1.724392 1.475183 1.261132
76 1.184609 1.059221 1.074702 0.932618 0.868996 1.076403
76 1.088208 1.238518 1.349257 1.291939 1.331932 1.244266
76 0.913551 0.573614 0.505965 0.421222 0.291665 0.397606
76 0.491297 1.288765 1.643027 1.626078 1.453805 1.328041
76 1.070329 1.001273 0.974566 0.924352 0.920757 0.991668
76 1.117424 1.147533 1.222455 1.322848 1.308667 1.230482
76 0.985793 0.622668 0.481744 0.417872 0.284209 0.392615
76 0.498635 1.282240 1.552336 1.547108 1.494093 1.265499
76 1.149572 0.956803 0.954101 0.884238 0.882071 1.077181
76 1.141775 1.204202 1.236277 1.343907 1.247989 1.125851
76 0.942769 0.607607 0.518417 0.405100 0.310282 0.389584
76 0.479315 1.232717 1.548582 1.555869 1.472668 1.300909
76 1.084424 0.945002 0.974255 0.819957 0.922508 0.935918
76 1.051407 1.202504 1.261543 1.380237 1.232771 1.212818
76 0.898586 0.571966 0.510466 0.397255 0.309261 0.413176
76 0.543265 1.264153 1.576372 1.584680 1.565980 1.334074
76 1.128166 0.935322 0.999027 0.873431 0.910077 0.996074
76 1.140048 1.215226 1.340889 1.275746 1.250889 1.180318
76 0.899387 0.609100 0.545186 0.399324 0.288529 0.394464
76 0.490728 1.223111 1.501389 1.604049 1.509390 1.312073
76 1.073718 0.990483 0.943038 0.882240 0.880457 1.016642
76 1.049128 1.237498 1.377713 1.192361 1.322165 1.232492
76 0.877052 0.590465 0.497342 0.395235 0.296292 0.373184
76 0.523047 1.251822 1.547945 1.506149 1.531264 1.270059
76 1.106246 0.987227 1.027662 0.925011 0.873878 0.944665
76 1.030351 1.229298 1.238179 1.273646 1.268992 1.197477
76 0.830294 0.604531 0.510478 0.401415 0.296269 0.401558
76 0.507981 1.066916 1.725178 1.624966 1.460855 1.279670
76 1.121725 0.995356 0.918773 0.974322 0.896021 1.040807
76 1.069550 1.273746 1.314890 1.331660 1.245647 1.258135
76 0.924833 0.631244 0.487438 0.392304 0.327647 0.383040
76 0.497281 1.254571 1.606254 1.637309 1.476033 1.319243
76 1.042513 1.066325 0.995273 0.875514 0.923990 0.981571
76 1.041293 1.135358 1.336076 1.291702 1.293048 1.251732
76 0.859434 0.582464 0.492302 0.401510 0.299494 0.395410
76 0.498767 1.194849 1.553945 1.547968 1.516471 1.253672
76 1.049076 0.987508 0.993693 0.981242 0.874631 1.037730
76 1.132876 1.142931 1.340209 1.238438 1.161723 1.229103
76 0.836788 0.610822 0.486320 0.426553 0.312822 0.392746
76 0.486243 1.141724 1.571781 1.582057 1.478118 1.308149
76 1.125455 1.013986 0.969434 0.848240 0.949123 0.972422
76 1.071299 1.174983 1.204160 1.275145 1.275058 1.229777
76 0.925144 0.600091 0.518637 0.405439 0.299812 0.402575
76 0.496187 1.181047 1.582865 1.527807 1.516827 1.248358
76 1.137032 0.990022 1.001980 0.917778 0.923159 0.937175
76 1.090896 1.242249 1.211698 1.320139 1.182711 1.150920
76 0.901391 0.560239 0.480290 0.376451 0.319778 0.402628
76 0.511346 1.189312 1.577380 1.496546 1.482490 1.260402
76 1.137749 1.045644 1.058663 0.930692 0.878448 0.955364
76 1.133733 1.217102 1.208036 1.318485 1.342355 1.202828
76 0.893338 0.580616 0.471069 0.412805 0.296291 0.396265
76 0.534654 1.232856 1.623733 1.609092 1.591200 1.389419
76 1.140898 1.023289 0.916216 0.904454 0.895316 1.003758
76 1.141494 1.068495 1.270396 1.314035 1.275724 1.131989
76 0.931283 0.606645 0.480578 0.405037 0.309859 0.400085
76 0.516011 1.203756 1.574705 1.525797 1.494844 1.310103
76 1.138537 0.995396 1.018297 0.865274 0.871825 0.995584
76 1.053596 1.239372 1.324083 1.314513 1.317623 1.297010
76 0.883121 0.547165 0.503986 0.399190 0.293790 0.384339
76 0.491216 1.208704 1.567820 1.754397 1.442370 1.258758
76 0.999301 1.010059 0.919344 0.880580 0.890076 0.971611
76 1.176510 1.247731 1.368595 1.254114 1.358687 1.223808
76 0.927771 0.624707 0.481825 0.393211 0.310351 0.357510
76 0.530267 1.226550 1.597075 1.614112 1.438204 1.281803
76 1.148413 1.051921 1.107849 0.897339 0.876292 0.979431
76 1.055206 1.196263 1.319902 1.298219 1.357010 1.188758
76 0.887492 0.586050 0.467347 0.374916 0.285850 0.420823
76 0.517905 1.265998 1.514738 1.474008 1.460397 1.309143
76 1.121942 1.041919 1.011371 0.962736 0.891986 0.963477
76 1.026026 1.157329 1.312590 1.253787 1.348711 1.267792
76 0.814695 0.620737 0.455208 0.406424 0.314698 0.401038
76 0.474406 1.171899 1.583255 1.588336 1.487826 1.294286
76 1.109393 0.951657 0.990319 0.954657 0.886153 0.982247
76 1.147441 1.077159 1.361432 1.267141 1.308524 1.204623
76 0.933929 0.593578 0.486439 0.420766 0.271630 0.400325
76 0.473041 1.163444 1.728720 1.597146 1.511704 1.207359
76 1.067922 1.007862 1.014190 0.922208 0.900311 1.021080
76 1.119966 1.112172 1.301924 1.339931 1.330674 1.182535
76 0.870997 0.573161 0.497379 0.418129 0.276578 0.389442
76 0.477204 1.237678 1.564524 1.569879 1.486983 1.323160
76 1.082735 0.878154 1.021732 0.915806 0.892097 0.956639
76 1.115478 1.218203 1.275558 1.288730 1.251632 1.191428
76 0.844185 0.610016 0.481113 0.403810 0.283128 0.390559
76 0.497790 1.120286 1.607369 1.575735 1.395459 1.232231
76 1.126625 1.035822 0.994724 0.914571 0.908058 1.013185
76 1.156583 1.127664 1.335176 1.280136 1.288339 1.185492
76 0.886495 0.570571 0.503667 0.426735 0.299326 0.399978
76 0.486254 1.194361 1.629835 1.576304 1.472772 1.320970
76 1.059608 1.010100 1.032813 0.948958 0.896746 1.054704
76 1.145514 1.152182 1.236667 1.284142 1.353505 1.196530
76 0.878376 0.637254 0.505738 0.362870 0.303806 0.408321
76 0.504512 1.221586 1.595694 1.515623 1.477758 1.250828
76 1.058959 0.949477 1.018100 0.903524 0.883866 0.974026
76 1.098969 1.251801 1.195781 1.319598 1.271623 1.109540
76 0.963506

[CURVES]
;ID         X-Value      Y-Value     

[CONTROLS]

[RULES]

[ENERGY]
GLOBAL EFFICIENCY      75.0000
GLOBAL PRICE           0.0000
DEMAND CHARGE          0.0000

[EMITTERS]
;ID        Flow coefficient

[QUALITY]

[SOURCES]
;Node      Type       Quality    Pattern   

[REACTIONS]
;Type           Pipe/Tank               Coefficient

 ORDER BULK 1
 ORDER TANK 1
 ORDER WALL 1
 GLOBAL BULK 0.0000    
 GLOBAL WALL 0.0000    
 LIMITING POTENTIAL 0.0000    
 ROUGHNESS CORRELATION 0.0000    

[MIXING]
;Tank ID             Model Fraction

[TIMES]
DURATION             672:00:00
HYDRAULIC TIMESTEP   01:00:00
QUALITY TIMESTEP     00:05:00
PATTERN TIMESTEP     01:00:00
PATTERN START        00:00:00
REPORT TIMESTEP      01:00:00
REPORT START         00:00:00
START CLOCKTIME      00:00:00 AM
RULE TIMESTEP        00:06:00
STATISTIC            NONE      

[REPORT]
 Status             	No
 Summary            	No
 Page               	0
 Nodes					ALL
 Links					ALL
 Flow					Yes
 Headloss				No
 Velocity 				No
 Demand 				Yes
 Head 					Yes
 Pressure 				Yes
 Quality 				No
 State 					Yes

[OPTIONS]
UNITS                CMH                 
HEADLOSS             H-W                 
SPECIFIC GRAVITY     1
VISCOSITY            1
TRIALS               40
ACCURACY             0.001
CHECKFREQ            2
MAXCHECK             10
UNBALANCED           CONTINUE 10
DEMAND MULTIPLIER    1
DEMAND MODEL         PDA
MINIMUM PRESSURE     0.00
REQUIRED PRESSURE    0.10
PRESSURE EXPONENT    0.5
EMITTER EXPONENT     0.5
QUALITY              NONE                
DIFFUSIVITY          1
TOLERANCE            0.01

[COORDINATES]
;Node      X-Coord    Y-Coord   
1                4000.000000000       7000.000000000
2                5000.000000000       7000.000000000
3                4000.000000000       6000.000000000
4                5000.000000000       6000.000000000
5                4000.000000000       5000.000000000
6                5000.000000000       5000.000000000
7                6000.000000000       7000.000000000

[VERTICES]
;Link      X-Coord    Y-Coord   

[LABELS]

[BACKDROP]
DIMENSIONS    2900.000    4900.000    5100.000    7100.000
UNITS    METERS
OFFSET    0.00    0.00

[END]
