; Filename: D:/OneDrive/IHE_HI/015. Thesis/Github_repositories\Msc-Thesis/INP_FILES/Twoloops_Base_WNTR.inp
; WNTR: 0.3.1
; Created: 2023-03-01 15:16:58
[TITLE]

[JUNCTIONS]
;ID                      Elevation       Demand Pattern                 
 1                                160             100 17                         ;
 2                                150             100 17                         ;
 3                                150             270 17                         ;
 4                                155             120 17                         ;
 5                                160             200 17                         ;
 6                                165             330 17                         ;

[RESERVOIRS]
;ID                                   Head                  Pattern
 7                                210                            ;

[TANKS]
;ID                              Elevation           Init Level            Min Level            Max Level             Diameter           Min Volume Volume Curve         Overflow            

[PIPES]
;ID                   Node1                Node2                              Length             Diameter            Roughness           Minor Loss               Status
 1                    2                    1                               1000             200             130               0                 Open   ;
 2                    1                    3                               1000             150             130               0                 Open   ;
 3                    2                    4                               1000             450             130               0                 Open   ;
 4                    4                    3                               1000             150             130               0                 Open   ;
 5                    5                    3                               1000             150             130               0                 Open   ;
 6                    4                    6                               1000             400             130               0                 Open   ;
 7                    6                    5                               1000             250             130               0                 Open   ;
 8                    7                    2                               1000             450             130               0                 Open   ;

[PUMPS]
;ID                   Node1                Node2                Properties          

[VALVES]
;ID                   Node1                Node2                            Diameter Type              Setting           Minor Loss

[TAGS]
;type      name       tag       

[DEMANDS]
;ID        Demand     Pattern   

[STATUS]
;ID        Setting   
[PATTERNS]
;ID        Multipliers

17 0.931753 0.800294 0.724848 0.676475 0.622411 0.553999
17 0.549311 0.516990 0.498968 0.484208 0.459114 0.443977
17 0.406088 0.364787 0.332678 0.307765 0.308964 0.315955
17 0.350382 0.373554 0.379576 0.406693 0.409399 0.420876
17 0.522698 0.617826 0.817779 1.010414 1.236787 1.391372
17 1.471480 1.560464 1.571591 1.559904 1.616408 1.622408
17 1.639369 1.619057 1.547550 1.524139 1.468543 1.416450
17 1.360667 1.408133 1.286749 1.234449 1.163016 1.161787
17 1.064494 1.057749 1.013654 1.018762 0.989784 0.975718
17 1.002974 1.014612 1.001330 0.987032 0.941605 0.917753
17 0.887896 0.879302 0.867305 0.856177 0.903194 0.912576
17 0.913921 0.981113 0.981854 1.027709 1.067305 1.079082
17 1.125067 1.095717 1.156649 1.156600 1.179101 1.215275
17 1.250531 1.284491 1.269706 1.330485 1.318764 1.262921
17 1.338695 1.349863 1.333460 1.298880 1.272160 1.316493
17 1.259678 1.270904 1.204999 1.169329 1.087780 1.012303
17 0.900189 0.822298 0.712736 0.652663 0.622598 0.549812
17 0.525371 0.528614 0.488269 0.498933 0.454008 0.424979
17 0.415384 0.374676 0.342067 0.311265 0.294833 0.329377
17 0.346335 0.386145 0.407578 0.400201 0.407384 0.435097
17 0.503764 0.622344 0.821905 1.041116 1.183330 1.347605
17 1.454167 1.606031 1.621513 1.637487 1.602669 1.634794
17 1.578421 1.582043 1.539798 1.554156 1.517298 1.451781
17 1.419898 1.325630 1.261227 1.256304 1.196882 1.158527
17 1.152429 1.082335 1.013296 1.033524 0.973682 0.990089
17 1.002169 1.040466 0.985105 0.964881 0.951827 0.912192
17 0.920279 0.866542 0.861410 0.879029 0.891035 0.955471
17 0.962662 0.973818 0.975491 1.043980 1.030922 1.043053
17 1.126137 1.130584 1.168548 1.180136 1.220564 1.213500
17 1.232343 1.300540 1.279111 1.288915 1.294691 1.303410
17 1.290796 1.264785 1.285977 1.245604 1.316256 1.247992
17 1.241868 1.241868 1.182250 1.182321 1.052154 1.003528
17 0.899293 0.775392 0.718372 0.645236 0.609261 0.574349
17 0.562391 0.532421 0.496308 0.477965 0.467864 0.437083
17 0.405121 0.352133 0.329590 0.301212 0.301680 0.316634
17 0.354540 0.382457 0.406291 0.397701 0.394840 0.423713
17 0.499830 0.641161 0.853950 1.013354 1.177057 1.342298
17 1.453333 1.563664 1.550694 1.626305 1.632829 1.624861
17 1.580886 1.573513 1.515211 1.518281 1.483714 1.469985
17 1.376166 1.376432 1.338857 1.193802 1.203075 1.159485
17 1.085976 1.053829 1.029396 1.004919 0.993820 0.965818
17 1.026667 1.027716 0.983733 0.952323 0.963643 0.913813
17 0.902555 0.880015 0.893837 0.899116 0.886939 0.894516
17 0.914814 0.983983 0.976223 1.016236 1.039419 1.075174
17 1.057402 1.127704 1.159438 1.174735 1.192539 1.231904
17 1.268415 1.211902 1.350854 1.317135 1.289547 1.292766
17 1.312837 1.297529 1.249837 1.357395 1.297126 1.315609
17 1.252341 1.278693 1.206872 1.160892 1.057503 1.022376
17 0.912417 0.814612 0.702001 0.641228 0.627647 0.553064
17 0.537603 0.530351 0.500977 0.485864 0.454138 0.434622
17 0.389548 0.375969 0.328971 0.301566 0.303998 0.314334
17 0.338910 0.369809 0.405550 0.400164 0.401366 0.436426
17 0.488732 0.627036 0.810742 1.016125 1.198988 1.343895
17 1.465126 1.545426 1.576973 1.597840 1.636671 1.588532
17 1.562965 1.571162 1.554713 1.602620 1.478859 1.485357
17 1.429793 1.323031 1.320105 1.215873 1.129462 1.157870
17 1.061370 1.071849 1.018019 1.044494 1.021370 0.990253
17 0.989734 0.981567 0.991182 0.975596 0.946748 0.927357
17 0.910413 0.891865 0.868169 0.861293 0.924562 0.907283
17 0.932398 0.961983 0.963139 1.016828 1.041874 1.089660
17 1.115366 1.123547 1.168800 1.180635 1.199624 1.233466
17 1.253574 1.272917 1.293039 1.277454 1.313924 1.277074
17 1.321882 1.294060 1.304036 1.316446 1.316726 1.248803
17 1.264663 1.262412 1.159245 1.155810 1.031358 0.977784
17 0.900695 0.767634 0.696919 0.628398 0.619778 0.566899
17 0.545184 0.516250 0.496466 0.464737 0.455123 0.424858
17 0.406863 0.372206 0.339423 0.310938 0.296408 0.310177
17 0.353541 0.382754 0.385852 0.404300 0.408998 0.427720
17 0.498149 0.626057 0.793394 1.030445 1.192581 1.345339
17 1.517770 1.569953 1.611866 1.628865 1.677217 1.672974
17 1.629744 1.599447 1.494295 1.537205 1.496097 1.460593
17 1.435311 1.280998 1.285198 1.252082 1.181767 1.111579
17 1.119117 1.068151 1.012093 1.017305 1.016432 0.999420
17 1.019607 1.007569 0.992095 0.958347 0.952065 0.928052
17 0.915765 0.883632 0.889709 0.869685 0.885913 0.917937
17 0.924796 0.988063 1.009263 1.032373 1.059096 1.119811
17 1.089685 1.073997 1.151989 1.171474 1.187580 1.205440
17 1.247319 1.287703 1.286927 1.369997 1.281495 1.282286
17 1.240496 1.307090 1.250209 1.289507 1.292833 1.271002
17 1.314082 1.265246 1.231659 1.126685 1.104462 1.008099
17 0.913885 0.810287 0.698010 0.641963 0.610351 0.535032
17 0.555384 0.524296 0.499543 0.482382 0.448365 0.428409
17 0.408802 0.373348 0.347532 0.305273 0.296049 0.313994
17 0.341112 0.379454 0.403062 0.401171 0.411266 0.425216
17 0.496525 0.628938 0.790353 0.982410 1.171700 1.386832
17 1.493200 1.591340 1.557369 1.560299 1.606246 1.623038
17 1.615958 1.614174 1.568499 1.586855 1.493322 1.431231
17 1.361373 1.331162 1.306295 1.223224 1.215254 1.176312
17 1.047869 1.080626 0.985907 1.019057 1.024497 1.000611
17 0.977855 0.994215 0.994767 0.977521 0.949834 0.922428
17 0.903843 0.864263 0.877376 0.913721 0.893076 0.911802
17 0.965095 0.922359 1.023628 1.013668 1.055414 1.078379
17 1.120734 1.117449 1.131856 1.203100 1.143260 1.230009
17 1.224448 1.263507 1.352293 1.305773 1.311693 1.256528
17 1.281045 1.305662 1.311990 1.319654 1.300224 1.302892
17 1.281443 1.195175 1.200888 1.164541 1.092825 0.990933
17 0.885499 0.776183 0.709068 0.662130 0.576578 0.557585
17 0.526780 0.526701 0.494457 0.475743 0.455809 0.435272
17 0.396861 0.341731 0.333334 0.308410 0.298683 0.310379
17 0.350652 0.382928 0.396240 0.399706 0.394955 0.425691
17 0.484496 0.641646 0.801600 1.019041 1.166257 1.335699
17 1.463692 1.497310 1.603685 1.611934 1.571012 1.575194
17 1.619364 1.609355 1.555517 1.545824 1.506715 1.467465
17 1.444973 1.314410 1.317588 1.235845 1.187555 1.137082
17 1.091747 1.036218 1.035924 1.044724 0.998877 0.999287
17 0.989745 1.003630 1.009323 0.973832 0.945049 0.931915
17 0.883476 0.890144 0.896108 0.910914 0.898373 0.945131
17 0.964267 0.952747 0.975641 1.020381 1.073613 1.074750
17 1.086786 1.158340 1.154000 1.118236 1.207612 1.242297
17 1.264050 1.294589 1.298251 1.272477 1.296908 1.278312
17 1.275749 1.267695 1.314536 1.306123 1.288348 1.272559
17 1.269323 1.267350 1.151899 1.155571 1.068294 0.960573
17 0.864977 0.779446 0.714053 0.652547 0.588732 0.576536
17 0.554410 0.522668 0.494086 0.491064 0.464712 0.438913
17 0.394748 0.343271 0.343711 0.295875 0.299785 0.332363
17 0.350504 0.387261 0.387981 0.387173 0.398154 0.436537
17 0.496538 0.626222 0.820266 1.036158 1.165321 1.318926
17 1.443795 1.582657 1.607514 1.693513 1.658219 1.616215
17 1.640482 1.587724 1.537643 1.554264 1.479110 1.449387
17 1.446151 1.352512 1.279118 1.233795 1.217283 1.131356
17 1.091489 1.051427 1.035936 1.003145 0.967963 0.981583
17 0.984817 1.031009 1.016253 0.992620 0.944065 0.909376
17 0.890865 0.867039 0.925676 0.846971 0.910152 0.896334
17 0.942751 0.952907 0.976447 1.003231 1.088889 1.073443
17 1.083155 1.135950 1.147653 1.189548 1.156218 1.236975
17 1.277819 1.240411 1.311653 1.351275 1.306207 1.324359
17 1.317435 1.282146 1.303783 1.262717 1.288266 1.296154
17 1.288283 1.241184 1.217280 1.121627 1.077885 0.998582
17 0.933293 0.790540 0.703836 0.647734 0.588971 0.567221
17 0.535132 0.499982 0.499414 0.477214 0.442849 0.430850
17 0.411915 0.367695 0.333786 0.297523 0.302861 0.318199
17 0.351886 0.383258 0.389122 0.401113 0.396342 0.426789
17 0.491026 0.653039 0.802995 0.995977 1.201790 1.322533
17 1.454475 1.523042 1.645158 1.649777 1.625863 1.604696
17 1.630109 1.593849 1.575167 1.532607 1.449353 1.454575
17 1.393738 1.372742 1.326308 1.228972 1.204080 1.183714
17 1.085310 1.098002 1.014539 1.011404 0.999777 0.999545
17 0.986726 0.994099 0.986646 0.987513 0.960000 0.965615
17 0.924678 0.876640 0.887372 0.904478 0.900551 0.918687
17 0.945697 0.988978 0.983034 1.019955 1.061863 1.083010
17 1.105271 1.115153 1.169734 1.222707 1.209754 1.224759
17 1.277392 1.269215 1.280508 1.307796 1.239102 1.272883
17 1.290953 1.265346 1.275841 1.292185 1.257283 1.278832
17 1.256323 1.241204 1.227700 1.150883 1.080537 1.000182
17 0.904093 0.777796 0.709300 0.651455 0.583551 0.574825
17 0.550727 0.512012 0.497587 0.471829 0.464199 0.422272
17 0.398220 0.357650 0.330087 0.294754 0.307959 0.311137
17 0.348619 0.378430 0.393903 0.394318 0.409979 0.422726
17 0.502712 0.626135 0.806456 1.023791 1.222330 1.346911
17 1.425217 1.610637 1.572590 1.574172 1.712194 1.604281
17 1.553225 1.559426 1.571096 1.539247 1.474448 1.510999
17 1.394045 1.323146 1.324978 1.278463 1.173401 1.111935
17 1.122670 1.018773 1.006818 1.030500 0.998893 0.994040
17 1.010620 1.002920 0.974026 1.006136 0.978978 0.928256
17 0.900812 0.927114 0.876769 0.882190 0.906561 0.947040
17 0.974817 0.967089 1.006167 0.998346 1.045402 1.058218
17 1.077850 1.161246 1.129234 1.160193 1.208780 1.261423
17 1.270481 1.353857 1.298059 1.313701 1.313797 1.340350
17 1.313188 1.297526 1.278060 1.309944 1.336435 1.278721
17 1.283352 1.246681 1.220724 1.128467 1.130774 0.972660
17 0.893420 0.808836 0.715151 0.658205 0.594047 0.564197
17 0.539200 0.534835 0.506904 0.487916 0.451771 0.439789
17 0.401805 0.374011 0.343033 0.303849 0.297562 0.311775
17 0.347202 0.377142 0.402876 0.400285 0.399531 0.436313
17 0.490621 0.641847 0.810398 1.028905 1.233246 1.343457
17 1.479873 1.554288 1.574418 1.632072 1.637146 1.630706
17 1.593651 1.584015 1.523834 1.522428 1.516679 1.483876
17 1.396842 1.358096 1.305929 1.250378 1.205807 1.102400
17 1.098915 1.067347 1.011489 1.044786 1.003231 1.030561
17 0.987673 0.987739 1.004485 0.948158 0.957805 0.926257
17 0.918282 0.898089 0.874282 0.867329 0.930821 0.905394
17 0.924968 0.951024 1.022346 1.015988 1.036108 1.079270
17 1.095447 1.108226 1.164718 1.197646 1.223648 1.248368
17 1.268505 1.237478 1.343401 1.314832 1.322488 1.332009
17 1.337267 1.311432 1.314095 1.287949 1.300860 1.267278
17 1.251632 1.218403 1.196255 1.170991 1.148581 1.001980
17 0.875729 0.814027 0.706655 0.638903 0.602518 0.551023
17 0.541467 0.517643 0.500984 0.483928 0.458413 0.431570
17 0.402275 0.366924 0.322948 0.296981 0.299630 0.308166
17 0.348811 0.387181 0.404857 0.393030 0.395518 0.430022
17 0.495987 0.632305 0.826785 0.994185 1.190370 1.330022
17 1.436330 1.522202 1.621679 1.625934 1.599113 1.609875
17 1.547558 1.557849 1.626682 1.530643 1.521950 1.455945
17 1.418551 1.373235 1.271280 1.244589 1.230574 1.125797
17 1.087538 1.055732 1.037692 1.021553 1.025348 1.009298
17 1.002294 1.031328 1.014082 0.951749 1.001893 0.957184
17 0.896972 0.892365 0.904995 0.883740 0.913146 0.940292
17 0.925548 0.960405 1.018428 1.036104 1.071401 1.073452
17 1.093642 1.078554 1.121117 1.173765 1.219789 1.242571
17 1.255145 1.276075 1.305647 1.308983 1.343299 1.306770
17 1.261488 1.267448 1.342318 1.273037 1.319877 1.282383
17 1.265606 1.237246 1.229313 1.142503 1.079362 0.967636
17 0.903720 0.802373 0.714332 0.665559 0.600662 0.568421
17 0.556841 0.502484 0.495442 0.493963 0.466366 0.437282
17 0.406661 0.366281 0.340511 0.308035 0.301439 0.318266
17 0.349545 0.371251 0.406165 0.400398 0.417106 0.426571
17 0.504209 0.639474 0.806809 1.034336 1.245722 1.351251
17 1.458118 1.537753 1.539444 1.618474 1.635905 1.651469
17 1.630722 1.567866 1.550997 1.567879 1.494796 1.442983
17 1.447975 1.383381 1.300489 1.230571 1.144905 1.157490
17 1.080280 1.020570 1.064854 1.024041 0.977220 0.975043
17 1.021020 0.988329 1.025923 0.993193 0.963940 0.931942
17 0.903446 0.901268 0.873636 0.888318 0.913535 0.930327
17 0.922144 0.962387 1.005056 1.018265 1.089303 1.067843
17 1.096431 1.140751 1.155001 1.169254 1.181844 1.236923
17 1.284524 1.295343 1.279767 1.352336 1.268793 1.261711
17 1.324974 1.306423 1.288430 1.274930 1.360341 1.292322
17 1.283486 1.248461 1.210435 1.159315 1.095904 0.990706
17 0.894750 0.766295 0.699837 0.650968 0.612540 0.571812
17 0.535395 0.505459 0.472226 0.491327 0.452400 0.427559
17 0.401053 0.353671 0.327444 0.318098 0.303032 0.319537
17 0.337181 0.397099 0.388618 0.416880 0.385418 0.439225
17 0.516181 0.625843 0.823936 1.025317 1.180469 1.312476
17 1.428274 1.565508 1.597276 1.605919 1.659207 1.633785
17 1.575825 1.543054 1.575953 1.516924 1.502976 1.503814
17 1.422894 1.331885 1.304177 1.221632 1.231281 1.131149
17 1.104560 1.068807 1.035426 0.971340 0.971072 0.990274
17 1.009950 1.003222 0.980857 0.954639 0.946045 0.915798
17 0.909231 0.879891 0.892271 0.876247 0.895393 0.913565
17 0.929940 0.984270 0.983728 1.015932 1.050427 1.048378
17 1.092851 1.107480 1.138508 1.171256 1.180802 1.224097
17 1.291308 1.282387 1.329777 1.315996 1.326826 1.282773
17 1.302728 1.304032 1.286785 1.282119 1.261253 1.327883
17 1.245220 1.273975 1.188780 1.127142 1.093530 0.985596
17 0.910232 0.788656 0.717763 0.634920 0.609976 0.570557
17 0.529153 0.545970 0.505401 0.502265 0.472447 0.429799
17 0.396702 0.360965 0.317682 0.301470 0.301481 0.326940
17 0.342820 0.386750 0.389979 0.396738 0.398758 0.430394
17 0.504573 0.648583 0.829627 1.019144 1.209369 1.394593
17 1.451944 1.572747 1.542139 1.637612 1.612002 1.617434
17 1.633283 1.586243 1.587243 1.578608 1.511673 1.491998
17 1.399540 1.355035 1.286412 1.271338 1.202784 1.132392
17 1.103403 1.084397 1.031328 0.991753 1.002638 0.959731
17 1.018969 0.997517 0.990614 0.998280 0.927665 0.960460
17 0.891356 0.876402 0.899650 0.899363 0.944122 0.916082
17 0.942448 0.943354 0.993358 1.011829 1.042524 1.038760
17 1.136533 1.091632 1.083110 1.144789 1.185508 1.201241
17 1.286014 1.279512 1.300660 1.322893 1.314069 1.328455
17 1.271154 1.286307 1.320098 1.237492 1.264245 1.302222
17 1.257720 1.263800 1.219420 1.119444 1.088867 1.022188
17 0.902654 0.778419 0.723435 0.655686 0.606511 0.573133
17 0.506782 0.527696 0.518081 0.484458 0.459560 0.437438
17 0.402706 0.368645 0.329760 0.301037 0.293974 0.310923
17 0.338640 0.371930 0.414090 0.407500 0.397411 0.423881
17 0.501126 0.627992 0.818134 1.029984 1.199142 1.360734
17 1.492942 1.540321 1.609113 1.614200 1.626805 1.606846
17 1.583076 1.586529 1.577303 1.537897 1.514962 1.436338
17 1.374826 1.366561 1.317885 1.246602 1.225067 1.164766
17 1.158973 1.058003 1.011520 0.995975 0.988690 1.008829
17 0.960225 1.032523 0.995214 0.976255 0.933117 0.922347
17 0.900238 0.883511 0.887622 0.876336 0.883875 0.930057
17 0.946587 0.975949 1.021181 1.005646 1.033972 1.103369
17 1.067377 1.094041 1.166184 1.178248 1.202526 1.227255
17 1.259159 1.280686 1.335242 1.296531 1.302378 1.349716
17 1.300715 1.358606 1.300012 1.339222 1.256961 1.293265
17 1.229675 1.261526 1.170891 1.153436 1.073986 0.975075
17 0.870852 0.785826 0.735681 0.643657 0.611007 0.564398
17 0.548521 0.499612 0.495968 0.489383 0.456301 0.430683
17 0.396556 0.372266 0.331713 0.305994 0.303858 0.320989
17 0.349682 0.391805 0.399518 0.403678 0.397267 0.428500
17 0.515878 0.628149 0.798508 1.034430 1.196430 1.354246
17 1.465610 1.551201 1.627217 1.596991 1.594796 1.620099
17 1.548594 1.537620 1.617858 1.556641 1.499698 1.493951
17 1.379422 1.346703 1.316210 1.267544 1.205142 1.085854
17 1.078702 1.072404 1.024791 1.062300 1.018531 1.010469
17 0.981121 1.005284 1.004824 1.003227 0.970511 0.943558
17 0.883370 0.910685 0.857302 0.877289 0.907754 0.917211
17 0.925714 0.956143 0.969035 1.037565 1.078487 1.074145
17 1.091192 1.090380 1.168372 1.224523 1.156861 1.203359
17 1.241269 1.268568 1.305911 1.349133 1.332952 1.316703
17 1.281178 1.271426 1.281987 1.343931 1.298395 1.277781
17 1.265251 1.261034 1.168492 1.179382 1.083462 0.993878
17 0.907971 0.797408 0.706038 0.644185 0.589574 0.572460
17 0.533333 0.508642 0.501659 0.493031 0.457353 0.426182
17 0.403231 0.377996 0.320175 0.308062 0.301231 0.324627
17 0.355103 0.378627 0.386524 0.407921 0.395719 0.419128
17 0.511484 0.624743 0.839954 1.021024 1.207659 1.359957
17 1.418865 1.493727 1.606898 1.642702 1.630423 1.590776
17 1.600606 1.578442 1.529775 1.564507 1.448092 1.475020
17 1.419569 1.382626 1.273862 1.247886 1.244705 1.159146
17 1.102213 1.073724 1.033918 1.055237 1.019673 0.997604
17 1.008604 0.998131 1.024197 0.953507 0.923095 0.951430
17 0.938756 0.893966 0.883631 0.898451 0.888353 0.923119
17 0.945458 0.984298 0.968840 1.016231 1.069744 1.061763
17 1.078146 1.169346 1.148290 1.159084 1.159383 1.247444
17 1.275968 1.275383 1.271342 1.306297 1.284753 1.278404
17 1.297316 1.273201 1.309173 1.319422 1.278170 1.254021
17 1.309572 1.217244 1.184161 1.151813 1.093030 0.993080
17 0.908294 0.787573 0.697123 0.665927 0.629861 0.584209
17 0.540597 0.537575 0.503557 0.475680 0.462065 0.430614
17 0.392135 0.357363 0.335040 0.294434 0.303625 0.306917
17 0.333430 0.366069 0.415734 0.399870 0.403139 0.439344
17 0.509342 0.618626 0.831231 1.017947 1.191800 1.352307
17 1.504482 1.521307 1.612828 1.623936 1.569228 1.591400
17 1.606183 1.622059 1.590865 1.551726 1.475542 1.510372
17 1.414805 1.327980 1.295244 1.267683 1.193087 1.164289
17 1.124281 1.070778 1.014434 1.013678 1.000903 1.036476
17 0.970898 1.003281 0.988318 0.987673 0.907210 0.945073
17 0.900247 0.852995 0.875276 0.897594 0.871354 0.920028
17 0.924742 0.961306 1.000535 1.030409 1.042061 1.082178
17 1.117996 1.117195 1.180268 1.206955 1.189711 1.213825
17 1.216489 1.279801 1.290551 1.327302 1.267145 1.295726
17 1.325187 1.281552 1.282883 1.265847 1.368135 1.270029
17 1.236891 1.220629 1.181417 1.140747 1.097912 0.992241
17 0.883389 0.770895 0.711243 0.648008 0.618371 0.566087
17 0.538001 0.507663 0.496940 0.476052 0.454406 0.423152
17 0.404307 0.362864 0.328429 0.295245 0.302962 0.320347
17 0.342358 0.387572 0.389082 0.401270 0.400259 0.415963
17 0.501897 0.658003 0.818136 1.004819 1.210729 1.354508
17 1.467748 1.535569 1.645503 1.639075 1.610523 1.613857
17 1.576292 1.561802 1.539645 1.498623 1.523318 1.449368
17 1.424353 1.337093 1.298431 1.227650 1.210075 1.138314
17 1.083921 1.027390 1.037829 0.996617 0.999684 0.989487
17 1.022690 1.016942 1.008944 0.969008 0.962598 0.956165
17 0.885021 0.888724 0.852563 0.911598 0.892838 0.934367
17 0.912163 1.007064 0.992863 1.037846 1.055139 1.070806
17 1.137087 1.086432 1.154271 1.194019 1.199283 1.226603
17 1.254781 1.251547 1.300991 1.320340 1.308388 1.295859
17 1.287267 1.293284 1.335517 1.249170 1.301042 1.280852
17 1.306893 1.241950 1.235638 1.098207 1.090010 1.003788
17 0.925030 0.767878 0.708727 0.648313 0.594050 0.578791
17 0.535417 0.539663 0.510542 0.489397 0.462916 0.422251
17 0.396551 0.368069 0.334219 0.313718 0.297195 0.311799
17 0.354185 0.373892 0.406986 0.411078 0.406113 0.424162
17 0.500411 0.643888 0.817198 1.058802 1.176224 1.324545
17 1.438273 1.530488 1.530274 1.603796 1.606466 1.619890
17 1.613370 1.541820 1.587706 1.588682 1.493751 1.503758
17 1.414347 1.409162 1.329049 1.206407 1.193349 1.168121
17 1.100672 1.061485 1.058350 0.996587 1.000350 1.005783
17 0.996840 1.005589 1.015500 0.989590 0.938279 0.904045
17 0.885796 0.885693 0.878823 0.872038 0.889233 0.892001
17 0.952618 0.971338 0.974804 1.027230 1.080213 1.060378
17 1.128933 1.116194 1.151955 1.174954 1.233637 1.233405
17 1.229634 1.249408 1.260144 1.262190 1.307801 1.277980
17 1.297899 1.282241 1.282664 1.291035 1.318293 1.313262
17 1.279345 1.216015 1.215447 1.162729 1.086015 0.986146
17 0.912759 0.800654 0.666614 0.655802 0.577035 0.572541
17 0.537407 0.530939 0.499018 0.471748 0.456446 0.440573
17 0.400210 0.363069 0.334654 0.307011 0.299964 0.325925
17 0.359032 0.384708 0.397712 0.413464 0.411964 0.433359
17 0.487839 0.638126 0.804879 1.010986 1.205761 1.354358
17 1.452993 1.588180 1.545724 1.647970 1.567264 1.629726
17 1.571619 1.608809 1.562328 1.541007 1.469452 1.438769
17 1.414579 1.371075 1.376157 1.250911 1.216191 1.108375
17 1.070742 1.054716 1.007421 1.040993 0.991796 1.026939
17 1.033380 1.006855 1.010036 0.979997 0.963975 0.933396
17 0.897774 0.894616 0.912037 0.899440 0.905864 0.922264
17 0.925589 0.952143 1.006467 0.998525 1.035842 1.103892
17 1.142113 1.086029 1.184744 1.167702 1.199640 1.226720
17 1.285567 1.241795 1.311860 1.282241 1.321511 1.343158
17 1.299989 1.310281 1.313418 1.282725 1.339303 1.333306
17 1.287742 1.242392 1.188915 1.132556 1.117039 1.026434
17 0.898854 0.768853 0.670664 0.633428 0.598433 0.580872
17 0.532043 0.523795 0.513032 0.481499 0.456491 0.420136
17 0.390380 0.366929 0.328426 0.306474 0.299716 0.321471
17 0.342737 0.377495 0.415169 0.395024 0.400175 0.422181
17 0.504448 0.649347 0.808890 1.005460 1.193304 1.365974
17 1.445241 1.537105 1.524090 1.579364 1.624073 1.646394
17 1.609442 1.546293 1.515954 1.538768 1.450416 1.488933
17 1.410541 1.311691 1.274885 1.227319 1.174458 1.109908
17 1.080757 1.047728 1.017456 1.033746 1.002097 0.979463
17 0.996823 0.988297 0.994000 0.998277 0.958516 0.966718
17 0.906767 0.869488 0.895921 0.905947 0.919695 0.899835
17 0.941933 0.994121 0.966305 1.016388 1.021944 1.056231
17 1.077726 1.151561 1.142033 1.152413 1.175145 1.232993
17 1.258092 1.317540 1.313000 1.269513 1.290159 1.330839
17 1.283852 1.345667 1.274131 1.318500 1.277608 1.276163
17 1.297820 1.237421 1.219523 1.157783 1.096367 0.980465
17 0.896012 0.800677 0.698859 0.668558 0.590673 0.561652
17 0.528216 0.496331 0.517969 0.478301 0.453694 0.429714
17 0.411359 0.356877 0.334232 0.303134 0.296420 0.320855
17 0.355084 0.376140 0.393849 0.392059 0.411324 0.422302
17 0.481509 0.654279 0.794647 1.030022 1.204402 1.359434
17 1.449789 1.560074 1.546631 1.643353 1.678422 1.645946
17 1.535375 1.549915 1.553774 1.548344 1.496800 1.443473
17 1.425513 1.386812 1.293960 1.263516 1.131374 1.122547
17 1.092932 1.051889 1.039009 1.031436 1.010133 0.986879
17 0.972976 1.017200 0.963236 0.993911 0.950110 0.902719
17 0.905171 0.885620 0.880998 0.885300 0.907551 0.936978
17 0.954106 0.991794 0.999117 1.059874 1.063981 1.064602
17 1.075934 1.128086 1.117433 1.149832 1.205738 1.214561
17 1.234883 1.282165 1.301890 1.301558 1.296729 1.325225
17 1.308903 1.294737 1.366955 1.308625 1.329432 1.274838
17 1.235301 1.220929 1.193568 1.135535 1.108950 0.995800
17 0.908306 0.793202 0.704767 0.647949 0.620569 0.556364
17 0.547337 0.507919 0.495404 0.480299 0.460784 0.444226
17 0.399599 0.357761 0.334038 0.303498 0.301432 0.316520
17 0.334668 0.383909 0.404667 0.408885 0.416933 0.417006
17 0.505165 0.641544 0.810183 1.022266 1.211992 1.318706
17 1.474158 1.520316 1.579141 1.566598 1.612324 1.610766
17 1.617595 1.581065 1.511523 1.559851 1.496442 1.472093
17 1.435956 1.393817 1.350992 1.243561 1.200328 1.119325
17 1.123355 1.037095 0.994874 1.027729 0.989566 1.014856
17 1.011730 0.973199 0.945606 0.959580 0.954019 0.901870
17 0.888250 0.859828 0.884639 0.888405 0.891335 0.945674
17 0.973021 0.983106 0.964005 1.003960 1.060531 1.062775
17 1.089284 1.143661 1.159139 1.203482 1.189699 1.263326
17 1.244426 1.321528 1.302752 1.284446 1.263968 1.295098
17 1.293338 1.322858 1.299865 1.292297 1.328003 1.283506
17 1.255282 1.254830 1.188244 1.162038 1.067188 0.993746
17 0.902739 0.788000 0.710740 0.658017 0.604927 0.570478
17 0.532217 0.527405 0.506696 0.489912 0.451145 0.429941
17 0.405068 0.359470 0.328259 0.317500 0.311711 0.325125
17 0.354738 0.372298 0.404100 0.398562 0.393921 0.422868
17 0.501157 0.629369 0.808031 1.030277 1.203459 1.357962
17 1.470216 1.527820 1.556142 1.634339 1.611227 1.552308
17 1.587438 1.546500 1.581424 1.549408 1.514907 1.438463
17 1.429352 1.363921 1.289344 1.234069 1.214203 1.133162
17 1.106680 1.084236 1.071553 1.044581 1.018016 0.969217
17 0.989709 0.994967 1.033063 0.967375 0.961070 0.926324
17 0.883168 0.892434 0.888666 0.864521 0.922012 0.881578
17 0.933561 0.991013 0.976135 1.033834 1.024691 1.074303
17 1.049097 1.104530 1.112008 1.163239 1.190034 1.212944
17 1.278454 1.260291 1.316494 1.349526 1.310229 1.280604
17 1.267517 1.282087 1.321106 1.307628 1.324357 1.309167
17 1.273494 1.252322 1.244526 1.179399 1.073542 1.017955
17 0.910545 0.811985 0.720481 0.634843 0.580564 0.571514
17 0.559581 0.510515 0.498119 0.470315 0.468579 0.411538
17 0.381891 0.366630 0.329208 0.302792 0.298193 0.320664
17 0.345320 0.371708 0.392581 0.408578 0.398218 0.415381
17 0.501022 0.642762 0.838747 1.018631 1.184167 1.364464
17 1.488268 1.547545 1.598573 1.632701 1.625460 1.625441
17 1.567299 1.544659 1.533551 1.553106 1.507764 1.488184
17 1.403481 1.324259 1.329758 1.244892 1.223526 1.157679
17 1.148150 1.057600 1.050732 1.028962 0.988897 0.995867
17 0.974201 0.974832 1.002531 0.996658 0.965874 0.930746
17 0.915534 0.875225 0.876838 0.899874 0.907796 0.916101
17 0.969679 0.946996 0.989626 1.020823 1.069145 1.076357
17 1.072247 1.135011 1.172373 1.190000 1.214860 1.183419
17 1.235724 1.295420 1.298573 1.320598 1.273503 1.301352
17 1.263866 1.249732 1.310453 1.325539 1.306386 1.288452
17 1.230245 1.265537 1.198943 1.191876 1.100438 0.958167
17 0.913591 0.771765 0.700133 0.644210 0.598871 0.569535
17 0.528040 0.506626 0.506006 0.480137 0.459392 0.412500
17 0.398583 0.357418 0.323679 0.311362 0.293426 0.310323
17 0.345897 0.383468 0.392928 0.411354 0.414111 0.419686
17 0.497549 0.626425 0.789491 1.020358 1.217606 1.406037
17 1.440605 1.590140 1.642955 1.630677 1.647337 1.645598
17 1.663171 1.596145 1.557755 1.506847 1.509160 1.487716
17 1.415633 1.334117 1.302316 1.242143 1.199221 1.105975
17 1.112117 1.074919 1.041322 1.010864 0.963881 0.998929
17 1.024829 0.988688 0.960215 0.950869 0.959694 0.931353
17 0.915953 0.884692 0.855188 0.872277 0.914739 0.922554
17 0.957001 0.980569 0.995901 1.023069 1.091038 1.085232
17 1.097171 1.133695 1.152531 1.122064 1.215602 1.274286
17 1.238735 1.320361 1.293321 1.314610 1.334566 1.284192
17 1.332305 1.268966 1.279945 1.288097 1.317212 1.280513
17 1.231313 1.235201 1.181179 1.163701 1.072668 0.999610
17 0.931753

[CURVES]
;ID         X-Value      Y-Value     

[CONTROLS]

[RULES]

[ENERGY]
GLOBAL EFFICIENCY      75.0000
GLOBAL PRICE           0.0000
DEMAND CHARGE          0.0000

[EMITTERS]
;ID        Flow coefficient

[QUALITY]

[SOURCES]
;Node      Type       Quality    Pattern   

[REACTIONS]
;Type           Pipe/Tank               Coefficient

 ORDER BULK 1
 ORDER TANK 1
 ORDER WALL 1
 GLOBAL BULK 0.0000    
 GLOBAL WALL 0.0000    
 LIMITING POTENTIAL 0.0000    
 ROUGHNESS CORRELATION 0.0000    

[MIXING]
;Tank ID             Model Fraction

[TIMES]
DURATION             672:00:00
HYDRAULIC TIMESTEP   00:15:00
QUALITY TIMESTEP     00:05:00
PATTERN TIMESTEP     00:15:00
PATTERN START        00:00:00
REPORT TIMESTEP      00:15:00
REPORT START         00:00:00
START CLOCKTIME      00:00:00 AM
RULE TIMESTEP        00:06:00
STATISTIC            NONE      

[REPORT]
 Status             	No
 Summary            	No
 Page               	0
 Nodes					ALL
 Links					ALL
 Flow					Yes
 Headloss				No
 Velocity 				No
 Demand 				Yes
 Head 					Yes
 Pressure 				Yes
 Quality 				No
 State 					Yes

[OPTIONS]
UNITS                CMH                 
HEADLOSS             H-W                 
SPECIFIC GRAVITY     1
VISCOSITY            1
TRIALS               40
ACCURACY             0.001
CHECKFREQ            2
MAXCHECK             10
UNBALANCED           CONTINUE 10
DEMAND MULTIPLIER    1
DEMAND MODEL         PDA
MINIMUM PRESSURE     0.00
REQUIRED PRESSURE    0.10
PRESSURE EXPONENT    0.5
EMITTER EXPONENT     0.5
QUALITY              NONE                