; Filename: D:/OneDrive/IHE_HI/015. Thesis/Github_repositories\Msc-Thesis/INP_FILES/Twoloops_Base_WNTR.inp
; WNTR: 0.4.2
; Created: 2023-03-07 09:37:42
[TITLE]

[JUNCTIONS]
;ID                      Elevation       Demand Pattern                 
 1                                160             100 17                         ;
 2                                150             100 17                         ;
 3                                150             270 17                         ;
 4                                155             120 17                         ;
 5                                160             200 17                         ;
 6                                165             330 17                         ;

[RESERVOIRS]
;ID                                   Head                  Pattern
 7                                210                            ;

[TANKS]
;ID                              Elevation           Init Level            Min Level            Max Level             Diameter           Min Volume Volume Curve         Overflow            

[PIPES]
;ID                   Node1                Node2                              Length             Diameter            Roughness           Minor Loss               Status
 1                    2                    1                               1000             200             130               0                 Open   ;
 2                    1                    3                               1000             150             130               0                 Open   ;
 3                    2                    4                               1000             450             130               0                 Open   ;
 4                    4                    3                               1000             150             130               0                 Open   ;
 5                    5                    3                               1000             150             130               0                 Open   ;
 6                    4                    6                               1000             400             130               0                 Open   ;
 7                    6                    5                               1000             250             130               0                 Open   ;
 8                    7                    2                               1000             450             130               0                 Open   ;

[PUMPS]
;ID                   Node1                Node2                Properties          

[VALVES]
;ID                   Node1                Node2                            Diameter Type              Setting           Minor Loss

[TAGS]
;type      name       tag       

[DEMANDS]
;ID        Demand     Pattern   

[STATUS]
;ID        Setting   

[PATTERNS]
;ID        Multipliers

17 0.995259 0.882561 0.875098 0.900688 0.849479 0.693085
17 0.751459 0.681531 0.662533 0.663408 0.635477 0.667854
17 0.627397 0.591419 0.590851 0.576355 0.605363 0.540213
17 0.549194 0.504546 0.444586 0.538896 0.538903 0.483647
17 0.568093 0.450576 0.488426 0.474870 0.516648 0.506714
17 0.462051 0.459696 0.417247 0.380154 0.412772 0.414967
17 0.429527 0.416265 0.367380 0.357300 0.329758 0.311409
17 0.295992 0.357693 0.302560 0.297689 0.278726 0.313336
17 0.270950 0.299569 0.292731 0.324622 0.316670 0.313272
17 0.347613 0.368583 0.371598 0.386943 0.373858 0.386852
17 0.383861 0.393354 0.382587 0.359865 0.404896 0.391005
17 0.363078 0.418159 0.392239 0.428549 0.464412 0.472538
17 0.534182 0.498876 0.598697 0.610189 0.656806 0.727418
17 0.801758 0.885276 0.882074 1.069029 1.108924 1.035880
17 1.307154 1.397504 1.397603 1.337059 1.304420 1.522990
17 1.431448 1.607639 1.544075 1.639504 1.602637 1.653377
17 1.601008 1.783419 1.631142 1.663426 1.811254 1.496768
17 1.503653 1.720016 1.507763 1.805961 1.571995 1.534101
17 1.784602 1.735383 1.765398 1.666986 1.492941 1.746790
17 1.534552 1.626246 1.630520 1.519149 1.579311 1.595749
17 1.533878 1.388805 1.499160 1.573875 1.382030 1.412926
17 1.371960 1.545640 1.428811 1.388390 1.275149 1.361114
17 1.247402 1.284076 1.215198 1.295904 1.270033 1.194940
17 1.221249 1.099005 1.056046 1.174157 1.140007 1.156483
17 1.257288 1.148240 1.015241 1.133463 0.968309 1.012418
17 1.027913 1.129284 0.971490 0.960811 1.000144 0.962519
17 1.067598 0.934095 0.929911 0.973064 0.970610 1.118001
17 1.060706 1.010163 0.931833 1.056959 0.944936 0.910352
17 1.071282 1.013975 1.043295 0.999859 1.022582 0.925738
17 0.894523 0.982433 0.888980 0.886212 0.890426 0.908163
17 0.880884 0.820257 0.854907 0.767519 0.916373 0.797138
17 0.823223 0.885157 0.844894 0.968894 0.821290 0.909109
17 0.897879 0.842495 0.941329 0.910499 0.970758 0.982324
17 1.067342 1.030143 0.941497 0.958153 1.046218 1.029737
17 1.038408 0.911153 1.016439 0.981181 1.052600 1.037504
17 1.109414 1.080350 1.118682 1.046185 1.022818 1.065283
17 1.098877 1.133017 1.266859 1.120614 1.066462 1.115676
17 1.115499 1.189033 1.056439 1.177112 1.192597 1.207191
17 1.156993 1.192421 1.115365 1.193117 1.199008 1.280221
17 1.171078 1.326636 1.389881 1.123696 1.322718 1.348040
17 1.250280 1.272300 1.295222 1.283587 1.283196 1.175813
17 1.396933 1.390121 1.240637 1.188313 1.342393 1.255728
17 1.311072 1.274909 1.353975 1.354762 1.244597 1.193948
17 1.179017 1.351055 1.210645 1.263931 1.256398 1.297759
17 1.148970 1.312016 1.334439 1.296143 1.259921 1.284889
17 1.300323 1.051480 1.398414 1.269610 1.180276 1.186354
17 1.235549 1.175514 1.024008 1.288996 1.118768 1.171547
17 1.035234 1.151730 1.044890 1.034662 0.906673 1.002541
17 0.937250 0.929190 0.795410 0.771026 0.869479 0.689430
17 0.705133 0.734692 0.670571 0.670104 0.614932 0.627895
17 0.552965 0.645545 0.571443 0.541983 0.577773 0.531826
17 0.495913 0.488827 0.546860 0.513595 0.508220 0.538920
17 0.466195 0.472011 0.475841 0.482983 0.471938 0.457645
17 0.456103 0.446603 0.421694 0.410384 0.428516 0.389135
17 0.372223 0.380980 0.372563 0.413174 0.337018 0.359679
17 0.344534 0.297371 0.326584 0.284009 0.253294 0.310261
17 0.268394 0.311652 0.296656 0.348847 0.347627 0.327984
17 0.333832 0.333172 0.360329 0.373653 0.380145 0.399177
17 0.413885 0.410462 0.383769 0.366814 0.433432 0.384090
17 0.386691 0.394138 0.368948 0.414965 0.432142 0.486363
17 0.520954 0.538917 0.617269 0.649315 0.692363 0.760867
17 0.807685 0.861400 0.933139 0.945569 1.096935 1.073064
17 1.260597 1.235989 1.309161 1.391700 1.447782 1.297385
17 1.448723 1.576880 1.369639 1.584738 1.356736 1.488824
17 1.603709 1.450697 1.523093 1.480812 1.788306 1.644500
17 1.683138 1.603756 1.587532 1.460486 1.583774 1.532748
17 1.682361 1.702925 1.727204 1.661911 1.517743 1.462255
17 1.631374 1.584712 1.379119 1.566117 1.597630 1.517428
17 1.483345 1.414833 1.344977 1.527857 1.415382 1.405754
17 1.555198 1.448410 1.403968 1.366809 1.458833 1.454488
17 1.372501 1.326400 1.104619 1.254605 1.217982 1.216884
17 1.260403 0.982806 1.120204 1.162524 1.097103 1.019327
17 1.157352 1.104712 1.011485 1.082334 1.103140 1.041586
17 1.081717 1.028823 0.992816 0.940613 1.000900 1.014110
17 1.052550 0.991915 1.026076 0.941478 0.953526 0.995361
17 0.940038 1.054339 1.033733 1.022840 1.025706 1.125018
17 0.971868 0.863619 1.000492 0.978118 0.942382 0.906791
17 0.928573 0.954103 0.905826 1.058272 0.862689 0.864040
17 0.776415 0.907500 0.781662 0.857004 0.868630 0.844356
17 0.973627 0.935043 0.954103 0.839842 0.950647 0.921401
17 0.941656 0.961952 0.862910 0.896547 0.975813 0.786921
17 1.030503 0.985317 0.960184 0.984977 0.920811 0.969980
17 1.066017 1.087634 1.182598 1.022089 0.994309 1.011449
17 0.987709 1.055219 1.092813 1.074094 1.155582 1.076805
17 1.077068 1.069179 1.006342 1.017782 1.051310 1.228292
17 1.209050 1.250986 1.071007 1.034149 1.134711 1.203165
17 1.235906 1.285753 1.240372 1.358067 1.222823 1.180613
17 1.131436 1.199646 1.294037 1.214633 1.362222 1.405201
17 1.115172 1.370939 1.130186 1.338423 1.403523 1.312360
17 1.206273 1.259693 1.283813 1.288707 1.285850 1.292087
17 1.316651 1.205558 1.281156 1.419023 1.271216 1.267345
17 1.387024 1.103197 1.396041 1.254147 1.315835 1.309389
17 1.373513 1.276492 1.241139 1.389702 1.101752 1.278982
17 1.167212 1.203671 1.402570 1.237254 1.242736 1.084991
17 1.147509 1.197721 1.190906 1.189378 1.126821 1.138880
17 1.109490 0.938751 1.029523 1.044188 1.001577 0.914219
17 0.995259

[CURVES]
;ID         X-Value      Y-Value     

[CONTROLS]

[RULES]

[ENERGY]
GLOBAL EFFICIENCY      75.0000
GLOBAL PRICE           0.0000
DEMAND CHARGE          0.0000

[EMITTERS]
;ID        Flow coefficient

[QUALITY]

[SOURCES]
;Node      Type       Quality    Pattern   

[REACTIONS]
;Type           Pipe/Tank               Coefficient

 ORDER BULK 1
 ORDER TANK 1
 ORDER WALL 1
 GLOBAL BULK 0.0000    
 GLOBAL WALL 0.0000    
 LIMITING POTENTIAL 0.0000    
 ROUGHNESS CORRELATION 0.0000    

[MIXING]
;Tank ID             Model Fraction

[TIMES]
DURATION             48:00:00
HYDRAULIC TIMESTEP   00:05:00
QUALITY TIMESTEP     00:05:00
PATTERN TIMESTEP     00:05:00
PATTERN START        00:00:00
REPORT TIMESTEP      00:05:00
REPORT START         00:00:00
START CLOCKTIME      00:00:00 AM
RULE TIMESTEP        00:06:00
STATISTIC            NONE      

[REPORT]
 Status             	No
 Summary            	No
 Page               	0
 Nodes					ALL
 Links					ALL
 Flow					Yes
 Headloss				No
 Velocity 				No
 Demand 				Yes
 Head 					Yes
 Pressure 				Yes
 Quality 				No
 State 					Yes

[OPTIONS]
UNITS                CMH                 
HEADLOSS             H-W                 
SPECIFIC GRAVITY     1
VISCOSITY            1
TRIALS               40
ACCURACY             0.001
CHECKFREQ            2
MAXCHECK             10
UNBALANCED           CONTINUE 10
DEMAND MULTIPLIER    1
DEMAND MODEL         PDA
MINIMUM PRESSURE     0.00
REQUIRED PRESSURE    0.10
PRESSURE EXPONENT    0.5
EMITTER EXPONENT     0.5
QUALITY              NONE                
DIFFUSIVITY          1
TOLERANCE            0.01

[COORDINATES]
;Node      X-Coord    Y-Coord   
1                4000.000000000       7000.000000000
2                5000.000000000       7000.000000000
3                4000.000000000       6000.000000000
4                5000.000000000       6000.000000000
5                4000.000000000       5000.000000000
6                5000.000000000       5000.000000000
7                6000.000000000       7000.000000000

[VERTICES]
;Link      X-Coord    Y-Coord   

[LABELS]

[BACKDROP]
DIMENSIONS    2900.000    4900.000    5100.000    7100.000
UNITS    METERS
OFFSET    0.00    0.00

[END]
