; Filename: D:/OneDrive/IHE_HI/015. Thesis/Github_repositories\Msc-Thesis/INP_FILES/Twoloops_Base_WNTR.inp
; WNTR: 0.4.2
; Created: 2023-03-07 09:38:08
[TITLE]

[JUNCTIONS]
;ID                      Elevation       Demand Pattern                 
 1                                160             100 38                         ;
 2                                150             100 38                         ;
 3                                150             270 38                         ;
 4                                155             120 38                         ;
 5                                160             200 38                         ;
 6                                165             330 38                         ;

[RESERVOIRS]
;ID                                   Head                  Pattern
 7                                210                            ;

[TANKS]
;ID                              Elevation           Init Level            Min Level            Max Level             Diameter           Min Volume Volume Curve         Overflow            

[PIPES]
;ID                   Node1                Node2                              Length             Diameter            Roughness           Minor Loss               Status
 1                    2                    1                               1000             200             130               0                 Open   ;
 2                    1                    3                               1000             150             130               0                 Open   ;
 3                    2                    4                               1000             450             130               0                 Open   ;
 4                    4                    3                               1000             150             130               0                 Open   ;
 5                    5                    3                               1000             150             130               0                 Open   ;
 6                    4                    6                               1000             400             130               0                 Open   ;
 7                    6                    5                               1000             250             130               0                 Open   ;
 8                    7                    2                               1000             450             130               0                 Open   ;

[PUMPS]
;ID                   Node1                Node2                Properties          

[VALVES]
;ID                   Node1                Node2                            Diameter Type              Setting           Minor Loss

[TAGS]
;type      name       tag       

[DEMANDS]
;ID        Demand     Pattern   

[STATUS]
;ID        Setting   

[PATTERNS]
;ID        Multipliers

38 1.027012 0.819356 0.766597 0.763528 0.689643 0.520866
38 0.580041 0.512281 0.495871 0.496040 0.463071 0.481622
38 0.424353 0.367443 0.341460 0.313886 0.335858 0.312050
38 0.356923 0.354078 0.318304 0.422437 0.430273 0.401852
38 0.590790 0.562298 0.820022 0.999024 1.347147 1.510535
38 1.485118 1.595605 1.486363 1.366865 1.582429 1.637580
38 1.757477 1.733117 1.511304 1.496326 1.374174 1.292240
38 1.216445 1.566762 1.246996 1.201715 1.073348 1.215153
38 0.957977 1.044190 0.958199 1.042230 0.959136 0.904929
38 1.001277 1.040466 1.005321 1.004838 0.905308 0.897632
38 0.851583 0.860195 0.824291 0.764325 0.912775 0.890398
38 0.821516 1.008106 0.927416 1.030909 1.113324 1.087412
38 1.200267 1.012480 1.184348 1.108417 1.116403 1.172573
38 1.227008 1.288814 1.178824 1.401125 1.355270 1.142822
38 1.454778 1.497805 1.425599 1.284808 1.188642 1.398064
38 1.228958 1.361896 1.219994 1.236537 1.110875 1.054621
38 0.900756 0.907370 0.718150 0.668279 0.690391 0.504119
38 0.484278 0.558775 0.453075 0.554940 0.442647 0.405631
38 0.461534 0.407002 0.379017 0.327885 0.279331 0.365736
38 0.340736 0.404443 0.430312 0.396467 0.422212 0.458736
38 0.515057 0.580368 0.836525 1.121830 1.133321 1.335470
38 1.415866 1.777874 1.686054 1.677196 1.527476 1.687123
38 1.513685 1.585062 1.480297 1.616391 1.569191 1.433560
38 1.453371 1.236747 1.144909 1.289136 1.208811 1.202116
38 1.309717 1.142532 0.956766 1.101278 0.894727 0.962413
38 0.998061 1.143883 0.940420 0.916232 0.946193 0.875391
38 0.981118 0.809154 0.800711 0.855733 0.864142 1.061977
38 1.016478 0.978925 0.901965 1.095991 0.967790 0.943294
38 1.204547 1.151948 1.231944 1.202562 1.282256 1.165474
38 1.154255 1.353011 1.216445 1.234843 1.258980 1.304776
38 1.263185 1.157494 1.235669 1.071702 1.365024 1.124060
38 1.157720 1.245751 1.129002 1.288504 0.968371 1.019523
38 0.897172 0.719749 0.740693 0.638572 0.637046 0.602268
38 0.632359 0.574005 0.485233 0.471067 0.498069 0.454045
38 0.420484 0.316828 0.329109 0.287674 0.306718 0.314766
38 0.373556 0.389690 0.425162 0.386466 0.372035 0.413203
38 0.499319 0.655637 0.964705 1.010783 1.108229 1.314239
38 1.412529 1.608406 1.402778 1.632470 1.648114 1.647392
38 1.523544 1.550943 1.381951 1.472894 1.434857 1.506377
38 1.278440 1.439955 1.455426 1.039130 1.233584 1.205948
38 1.043906 1.028508 1.021167 0.986856 0.975279 0.865326
38 1.096052 1.092881 0.934931 0.866001 0.993460 0.881876
38 0.910221 0.863045 0.930418 0.936082 0.847757 0.818156
38 0.825088 1.019585 0.904891 0.985017 1.001781 1.071779
38 0.929607 1.140429 1.195505 1.180956 1.170155 1.239090
38 1.298544 0.998459 1.503415 1.347725 1.238401 1.262203
38 1.351349 1.288469 1.091109 1.518868 1.288504 1.394528
38 1.199610 1.393053 1.227489 1.202790 0.989765 1.094914
38 1.027012

[CURVES]
;ID         X-Value      Y-Value     

[CONTROLS]

[RULES]

[ENERGY]
GLOBAL EFFICIENCY      75.0000
GLOBAL PRICE           0.0000
DEMAND CHARGE          0.0000

[EMITTERS]
;ID        Flow coefficient

[QUALITY]

[SOURCES]
;Node      Type       Quality    Pattern   

[REACTIONS]
;Type           Pipe/Tank               Coefficient

 ORDER BULK 1
 ORDER TANK 1
 ORDER WALL 1
 GLOBAL BULK 0.0000    
 GLOBAL WALL 0.0000    
 LIMITING POTENTIAL 0.0000    
 ROUGHNESS CORRELATION 0.0000    

[MIXING]
;Tank ID             Model Fraction

[TIMES]
DURATION             72:00:00
HYDRAULIC TIMESTEP   00:15:00
QUALITY TIMESTEP     00:05:00
PATTERN TIMESTEP     00:15:00
PATTERN START        00:00:00
REPORT TIMESTEP      00:15:00
REPORT START         00:00:00
START CLOCKTIME      00:00:00 AM
RULE TIMESTEP        00:06:00
STATISTIC            NONE      

[REPORT]
 Status             	No
 Summary            	No
 Page               	0
 Nodes					ALL
 Links					ALL
 Flow					Yes
 Headloss				No
 Velocity 				No
 Demand 				Yes
 Head 					Yes
 Pressure 				Yes
 Quality 				No
 State 					Yes

[OPTIONS]
UNITS                CMH                 
HEADLOSS             H-W                 
SPECIFIC GRAVITY     1
VISCOSITY            1
TRIALS               40
ACCURACY             0.001
CHECKFREQ            2
MAXCHECK             10
UNBALANCED           CONTINUE 10
DEMAND MULTIPLIER    1
DEMAND MODEL         PDA
MINIMUM PRESSURE     0.00
REQUIRED PRESSURE    0.10
PRESSURE EXPONENT    0.5
EMITTER EXPONENT     0.5
QUALITY              NONE                
DIFFUSIVITY          1
TOLERANCE            0.01

[COORDINATES]
;Node      X-Coord    Y-Coord   
1                4000.000000000       7000.000000000
2                5000.000000000       7000.000000000
3                4000.000000000       6000.000000000
4                5000.000000000       6000.000000000
5                4000.000000000       5000.000000000
6                5000.000000000       5000.000000000
7                6000.000000000       7000.000000000

[VERTICES]
;Link      X-Coord    Y-Coord   

[LABELS]

[BACKDROP]
DIMENSIONS    2900.000    4900.000    5100.000    7100.000
UNITS    METERS
OFFSET    0.00    0.00

[END]
