; Filename: D:/OneDrive/IHE_HI/015. Thesis/Github_repositories\Msc-Thesis/INP_FILES/Twoloops_Base_WNTR.inp
; WNTR: 0.3.1
; Created: 2023-03-01 15:16:30
[TITLE]

[JUNCTIONS]
;ID                      Elevation       Demand Pattern                 
 1                                160             100 0                          ;
 2                                150             100 0                          ;
 3                                150             270 0                          ;
 4                                155             120 0                          ;
 5                                160             200 0                          ;
 6                                165             330 0                          ;

[RESERVOIRS]
;ID                                   Head                  Pattern
 7                                210                            ;

[TANKS]
;ID                              Elevation           Init Level            Min Level            Max Level             Diameter           Min Volume Volume Curve         Overflow            

[PIPES]
;ID                   Node1                Node2                              Length             Diameter            Roughness           Minor Loss               Status
 1                    2                    1                               1000             200             130               0                 Open   ;
 2                    1                    3                               1000             150             130               0                 Open   ;
 3                    2                    4                               1000             450             130               0                 Open   ;
 4                    4                    3                               1000             150             130               0                 Open   ;
 5                    5                    3                               1000             150             130               0                 Open   ;
 6                    4                    6                               1000             400             130               0                 Open   ;
 7                    6                    5                               1000             250             130               0                 Open   ;
 8                    7                    2                               1000             450             130               0                 Open   ;

[PUMPS]
;ID                   Node1                Node2                Properties          

[VALVES]
;ID                   Node1                Node2                            Diameter Type              Setting           Minor Loss

[TAGS]
;type      name       tag       

[DEMANDS]
;ID        Demand     Pattern   

[STATUS]
;ID        Setting   
[PATTERNS]
;ID        Multipliers

0 0.931753 0.868766 0.842738 0.829523 0.792415 0.721867
0 0.724441 0.685695 0.665286 0.652774 0.631847 0.632122
0 0.609132 0.588561 0.580632 0.568813 0.572161 0.544701
0 0.542444 0.522714 0.498199 0.525339 0.521188 0.498674
0 0.522698 0.479294 0.487535 0.478466 0.487640 0.479345
0 0.459214 0.452897 0.432897 0.414337 0.418639 0.412396
0 0.409842 0.397592 0.373208 0.361701 0.344518 0.330745
0 0.318498 0.332707 0.308923 0.303047 0.293828 0.304025
0 0.290317 0.302151 0.303812 0.319712 0.323345 0.329194
0 0.348006 0.362427 0.370613 0.382345 0.383719 0.392590
0 0.394620 0.399136 0.395669 0.387585 0.402053 0.397444
0 0.389321 0.410627 0.407294 0.427661 0.451435 0.470119
0 0.511394 0.525489 0.589289 0.627620 0.680945 0.744867
0 0.811940 0.883294 0.926274 1.032484 1.088830 1.105998
0 1.235718 1.302348 1.336057 1.346787 1.364124 1.462575
0 1.455105 1.534400 1.531370 1.579002 1.580270 1.608548
0 1.600336 1.668351 1.622924 1.637309 1.688670 1.584559
0 1.586373 1.656987 1.583872 1.680221 1.598665 1.582121
0 1.661534 1.640997 1.646807 1.609686 1.547174 1.627053
0 1.551272 1.576444 1.572061 1.528657 1.541897 1.539971
0 1.511293 1.454192 1.481590 1.496528 1.422096 1.421459
0 1.396481 1.442727 1.391877 1.366302 1.316321 1.332675
0 1.282467 1.282444 1.247331 1.262208 1.241721 1.205022
0 1.202353 1.150429 1.125230 1.154051 1.132482 1.128185
0 1.152429 1.107187 1.054458 1.086000 1.023647 1.031643
0 1.030730 1.059104 1.001784 0.994230 1.004106 0.989123
0 1.022533 0.977241 0.975749 0.990564 0.990541 1.040666
0 1.022595 1.006643 0.981134 1.022983 0.985155 0.972350
0 1.023761 1.001360 1.006878 0.987351 0.989249 0.950825
0 0.933977 0.956700 0.918996 0.911710 0.907106 0.907529
0 0.893628 0.869425 0.877801 0.846287 0.894284 0.853653
0 0.862170 0.883316 0.871049 0.914160 0.867334 0.899551
0 0.899293 0.884826 0.922226 0.916812 0.942116 0.951489
0 0.985596 0.979159 0.955715 0.967462 1.003047 1.003768
0 1.012803 0.976416 1.017430 1.011488 1.041009 1.041601
0 1.071115 1.066898 1.085081 1.066266 1.063779 1.083196
0 1.099626 1.116216 1.166037 1.122513 1.109722 1.131443
0 1.136777 1.166776 1.128182 1.174145 1.185200 1.196134
0 1.185664 1.203933 1.184835 1.217378 1.225921 1.259435
0 1.229274 1.287037 1.313632 1.229931 1.300728 1.312964
0 1.283427 1.293012 1.302162 1.299155 1.299356 1.263453
0 1.336708 1.333741 1.283071 1.264741 1.315262 1.285684
0 1.303691 1.291512 1.318014 1.318620 1.282364 1.265994
0 1.261503 1.319234 1.272639 1.290358 1.287478 1.300497
0 1.249657 1.302219 1.307327 1.291583 1.275887 1.279912
0 1.280053 1.191364 1.300498 1.250252 1.212332 1.205352
0 1.211850 1.181012 1.118726 1.194283 1.123748 1.126497
0 1.065133 1.086924 1.033125 1.010352 0.947117 0.957262
0 0.931753

[CURVES]
;ID         X-Value      Y-Value     

[CONTROLS]

[RULES]

[ENERGY]
GLOBAL EFFICIENCY      75.0000
GLOBAL PRICE           0.0000
DEMAND CHARGE          0.0000

[EMITTERS]
;ID        Flow coefficient

[QUALITY]

[SOURCES]
;Node      Type       Quality    Pattern   

[REACTIONS]
;Type           Pipe/Tank               Coefficient

 ORDER BULK 1
 ORDER TANK 1
 ORDER WALL 1
 GLOBAL BULK 0.0000    
 GLOBAL WALL 0.0000    
 LIMITING POTENTIAL 0.0000    
 ROUGHNESS CORRELATION 0.0000    

[MIXING]
;Tank ID             Model Fraction

[TIMES]
DURATION             24:00:00
HYDRAULIC TIMESTEP   00:05:00
QUALITY TIMESTEP     00:05:00
PATTERN TIMESTEP     00:05:00
PATTERN START        00:00:00
REPORT TIMESTEP      00:05:00
REPORT START         00:00:00
START CLOCKTIME      00:00:00 AM
RULE TIMESTEP        00:06:00
STATISTIC            NONE      

[REPORT]
 Status             	No
 Summary            	No
 Page               	0
 Nodes					ALL
 Links					ALL
 Flow					Yes
 Headloss				No
 Velocity 				No
 Demand 				Yes
 Head 					Yes
 Pressure 				Yes
 Quality 				No
 State 					Yes

[OPTIONS]
UNITS                CMH                 
HEADLOSS             H-W                 
SPECIFIC GRAVITY     1
VISCOSITY            1
TRIALS               40
ACCURACY             0.001
CHECKFREQ            2
MAXCHECK             10
UNBALANCED           CONTINUE 10
DEMAND MULTIPLIER    1
DEMAND MODEL         PDA
MINIMUM PRESSURE     0.00
REQUIRED PRESSURE    0.10
PRESSURE EXPONENT    0.5
EMITTER EXPONENT     0.5
QUALITY              NONE                
DIFFUSIVITY          1
TOLERANCE            0.01

[COORDINATES]
;Node      X-Coord    Y-Coord   
1                4000.000000000       7000.000000000
2                5000.000000000       7000.000000000
3                4000.000000000       6000.000000000
4                5000.000000000       6000.000000000
5                4000.000000000       5000.000000000
6                5000.000000000       5000.000000000
7                6000.000000000       7000.000000000

[VERTICES]
;Link      X-Coord    Y-Coord   

[LABELS]

[BACKDROP]
DIMENSIONS    2900.000    4900.000    5100.000    7100.000
UNITS    METERS
OFFSET    0.00    0.00

[END]
