; Filename: D:/OneDrive/IHE_HI/015. Thesis/Github_repositories\Msc-Thesis/INP_FILES/Twoloops_Base_WNTR.inp
; WNTR: 0.4.2
; Created: 2023-03-07 09:40:50
[TITLE]

[JUNCTIONS]
;ID                      Elevation       Demand Pattern                 
 1                                160             100 73                         ;
 2                                150             100 73                         ;
 3                                150             270 73                         ;
 4                                155             120 73                         ;
 5                                160             200 73                         ;
 6                                165             330 73                         ;

[RESERVOIRS]
;ID                                   Head                  Pattern
 7                                210                            ;

[TANKS]
;ID                              Elevation           Init Level            Min Level            Max Level             Diameter           Min Volume Volume Curve         Overflow            

[PIPES]
;ID                   Node1                Node2                              Length             Diameter            Roughness           Minor Loss               Status
 1                    2                    1                               1000             200             130               0                 Open   ;
 2                    1                    3                               1000             150             130               0                 Open   ;
 3                    2                    4                               1000             450             130               0                 Open   ;
 4                    4                    3                               1000             150             130               0                 Open   ;
 5                    5                    3                               1000             150             130               0                 Open   ;
 6                    4                    6                               1000             400             130               0                 Open   ;
 7                    6                    5                               1000             250             130               0                 Open   ;
 8                    7                    2                               1000             450             130               0                 Open   ;

[PUMPS]
;ID                   Node1                Node2                Properties          

[VALVES]
;ID                   Node1                Node2                            Diameter Type              Setting           Minor Loss

[TAGS]
;type      name       tag       

[DEMANDS]
;ID        Demand     Pattern   

[STATUS]
;ID        Setting   

[PATTERNS]
;ID        Multipliers

73 0.995259 0.728001 0.635235 0.611548 0.556027 0.430952
73 0.422802 0.326756 0.298142 0.356780 0.403457 0.437557
73 0.522831 0.822996 1.231958 1.496302 1.743432 1.607697
73 1.630054 1.479707 1.270231 1.463988 1.367426 1.139785
73 1.249804 0.942073 1.002746 0.992268 1.091967 1.037784
73 0.908367 0.901647 0.852060 0.832445 0.979125 1.061834
73 1.181199 1.230193 1.172112 1.235548 1.218213 1.195272
73 1.166911 1.455229 1.260247 1.236539 1.109799 1.130467
73 0.812850 0.701857 0.567763 0.551582 0.484676 0.425366
73 0.399324 0.338225 0.301197 0.354521 0.384776 0.393683
73 0.479826 0.799405 1.141453 1.314993 1.617033 1.588494
73 1.443501 1.602938 1.418343 1.413132 1.356869 1.202137
73 1.175200 0.955668 1.024140 0.962305 0.947752 0.920581
73 0.883176 0.884614 0.837082 0.995785 1.027940 0.955001
73 1.198225 1.277938 1.284872 1.244788 1.216481 1.389260
73 1.268552 1.398299 1.316245 1.344333 1.225658 1.125872
73 0.900567 0.787110 0.604569 0.552070 0.556495 0.420775
73 0.369508 0.348930 0.278884 0.388808 0.390073 0.384393
73 0.557688 0.889609 1.334464 1.546680 1.517322 1.814278
73 1.574272 1.634724 1.585253 1.395639 1.347898 1.258911
73 1.124844 0.964055 1.017894 1.083404 0.958326 0.945142
73 0.876502 0.979467 0.936304 0.967819 0.953805 1.086002
73 1.055494 1.149607 1.154219 1.309445 1.344974 1.290266
73 1.330889 1.217308 1.183682 1.303397 1.212000 1.121235
73 1.028690 0.751219 0.567138 0.575197 0.460523 0.445117
73 0.398362 0.363649 0.286594 0.330936 0.397637 0.386421
73 0.533799 0.764091 1.117382 1.428399 1.552189 1.816180
73 1.691144 1.567824 1.389711 1.480110 1.221983 1.082339
73 1.178410 1.051767 1.055252 1.022730 1.051410 0.916451
73 0.844151 0.917699 0.856616 0.905637 0.972668 1.053069
73 1.076636 1.052757 1.153659 1.090500 1.348768 1.181001
73 1.213858 1.306824 1.242314 1.387488 1.106914 1.097388
73 0.897879 0.661106 0.618838 0.533520 0.523154 0.480415
73 0.451918 0.356194 0.293355 0.343201 0.426392 0.418264
73 0.519204 0.737765 1.198249 1.401975 1.626873 1.618148
73 1.687377 1.589316 1.570770 1.369317 1.226333 1.163556
73 1.098877 1.055619 1.135559 1.000995 0.942643 0.933907
73 0.874966 0.907113 0.816797 0.948309 1.009390 1.066620
73 1.060577 1.131036 1.097468 1.221125 1.257657 1.339212
73 1.209818 1.363809 1.416570 1.112195 1.230691 1.123949
73 0.865578 0.693986 0.595216 0.529436 0.490730 0.411759
73 0.427656 0.351111 0.285359 0.317565 0.412506 0.388538
73 0.504259 0.801377 1.249791 1.528083 1.530343 1.492629
73 1.448038 1.616749 1.393003 1.365903 1.253488 1.189143
73 0.972206 1.043830 1.031433 1.008863 0.981347 0.959278
73 0.921549 0.734977 1.005619 0.966835 0.960855 1.027289
73 1.132587 1.139422 1.053791 1.414246 1.291378 1.386572
73 1.246020 1.422837 1.322335 1.316309 1.124742 1.158570
73 0.937250 0.766463 0.577389 0.523510 0.569118 0.428679
73 0.396737 0.352244 0.301759 0.360381 0.390413 0.411377
73 0.460804 0.898316 1.191492 1.407067 1.663973 1.582738
73 1.471911 1.433608 1.562440 1.395253 1.289571 1.270044
73 1.025629 0.986889 0.976907 1.009220 0.997470 0.937288
73 0.896672 0.875967 0.861141 0.898640 1.016471 0.995733
73 1.023615 1.125916 1.188648 1.428760 1.245033 1.380543
73 1.358281 1.209813 1.360314 1.179712 1.008540 1.119375
73 0.805182 0.730167 0.575376 0.592745 0.532055 0.445342
73 0.383492 0.305730 0.292063 0.342345 0.391247 0.406226
73 0.517356 0.834172 1.144982 1.340385 1.730995 1.560399
73 1.537380 1.510860 1.334124 1.368340 1.262587 1.237307
73 1.146098 1.032372 1.055911 1.024009 0.999059 0.962913
73 0.889705 0.860756 0.885542 0.880783 1.016827 0.989281
73 1.155548 1.130242 1.203564 1.295658 1.350179 1.183465
73 1.283862 1.371546 1.167548 1.299427 1.037599 1.013819
73 0.902086 0.640263 0.564522 0.491463 0.549444 0.462306
73 0.413615 0.325345 0.293638 0.314430 0.392996 0.384054
73 0.525738 0.872970 1.305594 1.541972 1.542529 1.518751
73 1.673600 1.592972 1.340832 1.438788 1.363533 1.197123
73 1.087786 0.982123 0.913208 1.051727 0.981453 0.940345
73 0.993567 0.917852 0.920025 0.952775 1.091200 1.160502
73 1.161347 1.187499 1.049189 1.267714 1.289852 1.313961
73 1.373558 1.088600 1.255594 1.290483 1.166387 0.988260
73 0.946924 0.722742 0.565040 0.549251 0.524648 0.457941
73 0.419214 0.331299 0.292886 0.323979 0.397938 0.407133
73 0.526275 0.811388 1.232934 1.382032 1.524868 1.616953
73 1.498756 1.636388 1.541682 1.432331 1.326435 1.337560
73 1.069055 0.895807 1.011958 1.000492 0.968949 0.897694
73 0.876284 0.891236 0.872848 1.081469 0.942370 1.001905
73 0.948951 1.164729 1.054819 1.217642 1.278498 1.250956
73 1.435632 1.380473 1.402893 1.202682 1.281259 1.112226
73 0.941656 0.754843 0.567285 0.525344 0.525878 0.384851
73 0.436320 0.340694 0.299177 0.352809 0.375282 0.393992
73 0.533009 0.880663 1.394128 1.460427 1.536779 1.577512
73 1.502268 1.552346 1.534446 1.405847 1.385515 1.176141
73 1.077068 0.996142 0.902042 0.909140 0.929251 1.028175
73 0.948344 0.954377 0.828061 0.833135 0.960397 1.063063
73 1.132914 1.219563 1.220468 1.389948 1.282637 1.235014
73 1.168865 1.233260 1.318885 1.202202 1.267445 1.171608
73 0.772042 0.747789 0.519374 0.552054 0.536746 0.459577
73 0.369287 0.318168 0.295290 0.344394 0.395130 0.399788
73 0.506404 0.757785 1.182575 1.600565 1.563074 1.584387
73 1.703507 1.320148 1.606324 1.355330 1.312786 1.199799
73 1.162203 1.015567 0.959318 1.081686 0.858150 0.954868
73 0.827212 0.841357 1.008608 0.942195 1.011704 0.939517
73 1.051883 1.160948 1.225543 1.304949 1.300673 1.347910
73 1.335395 1.159725 1.302886 1.328428 1.242471 1.056502
73 0.856496 0.663229 0.595282 0.575717 0.441446 0.439670
73 0.372645 0.345281 0.290022 0.338369 0.394793 0.413196
73 0.488228 0.667703 1.239118 1.505577 1.578924 1.521862
73 1.633771 1.595119 1.457697 1.390422 1.227448 1.180123
73 0.997672 1.057983 0.943338 1.017876 0.915642 0.919940
73 0.894034 0.793795 0.906218 0.923231 0.895459 0.969707
73 1.139938 1.209070 1.190503 1.288933 1.317460 1.332436
73 1.400307 1.184953 1.352764 1.240811 1.183853 1.060495
73 0.879742 0.658627 0.606600 0.593113 0.498316 0.457757
73 0.383505 0.327426 0.308391 0.340467 0.389109 0.412179
73 0.472460 0.829409 1.259063 1.586631 1.591323 1.761299
73 1.699303 1.466408 1.390386 1.382964 1.380257 1.187731
73 1.060357 1.128267 1.017214 0.863811 1.019030 0.983462
73 0.912183 0.905432 0.896367 0.869992 0.977758 0.992280
73 1.038439 1.060460 1.232579 1.265764 1.265043 1.255690
73 1.298173 1.387102 1.143671 1.298634 1.160709 0.957952
73 0.794932 0.671996 0.607902 0.551782 0.471831 0.485731
73 0.434152 0.337587 0.289355 0.371693 0.418129 0.423387
73 0.480306 0.678076 1.352409 1.325151 1.596566 1.860247
73 1.631735 1.648460 1.364784 1.258485 1.258449 1.270975
73 1.077148 0.982928 1.011878 1.068685 0.913304 0.884434
73 0.857412 0.939548 0.912680 1.065581 1.056187 1.049750
73 1.183495 1.161976 1.149246 1.309712 1.245687 1.283829
73 1.403567 1.294830 1.237355 1.234538 1.273569 1.044275
73 0.879109 0.689165 0.606621 0.526600 0.451945 0.433426
73 0.377613 0.354350 0.314628 0.360471 0.387871 0.382743
73 0.484774 0.765466 1.379798 1.269310 1.654145 1.502279
73 1.589983 1.467176 1.394013 1.312366 1.436889 1.183386
73 1.049464 1.066558 1.000621 1.046894 0.890545 0.971077
73 0.941726 0.793747 0.924203 1.040868 0.999109 1.103811
73 1.144258 1.098707 1.202863 1.140061 1.264798 1.327424
73 1.356402 1.304671 1.356159 1.185882 1.192678 1.081332
73 0.999878 0.701796 0.582035 0.539759 0.472427 0.463090
73 0.391239 0.294309 0.298945 0.341568 0.360822 0.400821
73 0.544681 0.842586 1.244059 1.348861 1.645782 1.642232
73 1.650788 1.599180 1.377620 1.405242 1.240886 1.189320
73 1.040772 1.113418 0.948462 0.949412 1.004475 0.892070
73 0.877068 0.837739 0.976203 0.989265 0.996552 1.027273
73 1.162101 1.175312 1.235860 1.256395 1.168318 1.297778
73 1.258466 1.353167 1.378924 1.219785 1.233724 1.192576
73 0.863944 0.782676 0.569307 0.539811 0.499666 0.458111
73 0.379896 0.318054 0.287981 0.355033 0.407921 0.456191
73 0.541130 0.792038 1.223391 1.554696 1.602938 1.620932
73 1.604951 1.640789 1.423651 1.381214 1.336694 1.215197
73 1.115812 1.009238 1.058352 1.132024 1.024385 0.942650
73 0.940810 0.853124 0.859517 0.946583 0.845032 0.979130
73 1.077035 1.054242 1.125650 1.225397 1.171849 1.274761
73 1.258249 1.304733 1.390026 1.283062 1.201516 1.086527
73 0.912279 0.667562 0.595868 0.549055 0.458877 0.481573
73 0.425953 0.317259 0.295656 0.329855 0.416785 0.376817
73 0.493326 0.774925 1.203669 1.309013 1.727340 1.533526
73 1.605750 1.539744 1.431410 1.333702 1.373039 1.155283
73 1.117897 0.982504 0.961169 1.031974 1.055825 0.943672
73 0.823216 0.987332 0.853746 0.857340 1.155665 1.026464
73 1.003526 1.100364 1.226463 1.272741 1.233565 1.449489
73 1.259317 1.210146 1.374934 1.371186 1.141140 0.989268
73 0.955644 0.623601 0.555842 0.570359 0.498339 0.450546
73 0.408468 0.326728 0.276624 0.374862 0.431800 0.407400
73 0.501354 0.931724 1.180097 1.444087 1.634990 1.771429
73 1.752906 1.535435 1.527750 1.292259 1.275666 1.132762
73 1.033549 1.136276 0.952463 0.971530 1.021951 1.027969
73 0.925980 1.027609 0.895968 0.959388 1.016536 1.142543
73 1.133478 1.139414 1.131781 1.276828 1.409305 1.274423
73 1.341258 1.321987 1.367355 1.208599 1.368959 0.997186
73 0.880260 0.750947 0.610682 0.565913 0.485117 0.455741
73 0.400294 0.360799 0.312428 0.364846 0.384210 0.425837
73 0.506767 0.885130 1.345012 1.439933 1.560995 1.543348
73 1.586216 1.523882 1.532355 1.396521 1.271795 1.269102
73 1.038100 1.058961 0.975643 1.047155 1.083116 0.936360
73 0.923816 0.891101 0.856831 0.958372 1.017347 1.078025
73 1.086906 1.153900 1.117372 1.231334 1.343365 1.376561
73 1.267059 1.310932 1.317788 1.285270 1.238936 0.962262
73 0.897337 0.721128 0.563988 0.593212 0.504847 0.500738
73 0.381027 0.311800 0.304037 0.313131 0.405159 0.404789
73 0.530470 0.851397 1.169942 1.370336 1.764381 1.550373
73 1.499630 1.458113 1.600557 1.364881 1.241211 1.202760
73 1.086342 0.990146 1.045239 1.067684 1.059119 0.997589
73 0.921742 0.787701 0.990140 0.961841 1.036489 1.122339
73 1.194601 1.176220 1.231359 1.213129 1.302581 1.239633
73 1.243845 1.232901 1.287830 1.349853 1.428310 1.092363
73 0.827186 0.764891 0.589172 0.517701 0.506295 0.423718
73 0.405339 0.328002 0.301771 0.356170 0.401620 0.402836
73 0.508529 0.837395 1.125733 1.341072 1.594083 1.487807
73 1.608403 1.647477 1.554640 1.320145 1.232900 1.216403
73 1.073514 1.012529 1.035814 0.944092 0.975926 0.907922
73 0.843671 0.836305 0.936583 0.947660 0.947250 1.037379
73 0.991839 1.096931 1.354769 1.251559 1.357069 1.301461
73 1.327157 1.354590 1.213840 1.267561 1.313678 1.028530
73 0.869412 0.697807 0.609685 0.556046 0.538022 0.471515
73 0.398511 0.354663 0.312674 0.316954 0.460633 0.445179
73 0.494954 0.835557 1.295354 1.451777 1.670114 1.735611
73 1.502577 1.503266 1.582927 1.447691 1.372056 1.183417
73 1.080926 0.908367 0.931240 1.006373 1.049473 0.984100
73 0.893075 0.867267 0.911728 0.949156 1.084273 1.061208
73 1.002238 1.059806 1.309351 1.169947 1.359631 1.285556
73 1.286759 1.292262 1.395268 1.255224 1.197601 0.980879
73 0.911161 0.733584 0.608609 0.584282 0.501655 0.466007
73 0.439564 0.299084 0.291795 0.377997 0.422467 0.418822
73 0.524980 0.833065 1.317475 1.500183 1.623027 1.643258
73 1.618515 1.451360 1.569361 1.397716 1.442109 1.187490
73 1.127781 1.047411 0.962467 1.063278 1.114304 0.952859
73 0.883774 0.862863 0.797812 0.934644 1.015060 1.118540
73 1.163363 1.118742 1.180069 1.343230 1.286470 1.266611
73 1.408616 1.383849 1.301466 1.224675 1.055145 1.118298
73 0.851596 0.627210 0.657054 0.560026 0.465830 0.424438
73 0.420903 0.312380 0.323331 0.361081 0.412878 0.412214
73 0.505744 0.860195 1.167306 1.474499 1.672187 1.682718
73 1.485281 1.512804 1.522752 1.374254 1.438423 1.164765
73 1.089294 1.079788 1.019832 0.994792 0.954610 0.970958
73 0.956111 0.906987 0.857978 1.043169 0.913205 0.952070
73 1.163397 1.162964 1.160436 1.175428 1.481022 1.315775
73 1.341668 1.327594 1.333915 1.311070 1.252735 1.055766
73 0.884251 0.636667 0.571909 0.547837 0.531351 0.474250
73 0.391823 0.304759 0.250008 0.372264 0.385859 0.391613
73 0.503947 0.748128 1.174816 1.645032 1.648517 1.662819
73 1.448081 1.769583 1.371948 1.571224 1.135026 1.293493
73 1.206792 0.981085 1.025355 1.036504 0.951172 0.870783
73 0.828843 0.910262 0.895404 0.912736 1.058006 1.084034
73 1.050139 1.064719 1.237675 1.217783 1.307738 1.430170
73 1.339182 1.235348 1.312532 1.197331 1.315814 1.043689
73 0.911193 0.724058 0.605733 0.475721 0.456607 0.445370
73 0.407666 0.327025 0.282771 0.320030 0.390363 0.391130
73 0.515385 0.801034 1.243395 1.414595 1.575428 1.593742
73 1.524893 1.618129 1.426776 1.364649 1.294297 1.100046
73 1.078554 0.988089 0.976711 0.999931 0.952005 0.941111
73 0.970668 0.880278 0.961844 0.964363 1.046450 1.003083
73 1.106924 1.156635 1.155891 1.196247 1.183759 1.423886
73 1.224153 1.407974 1.263536 1.204200 1.244821 1.039178
73 0.995259

[CURVES]
;ID         X-Value      Y-Value     

[CONTROLS]

[RULES]

[ENERGY]
GLOBAL EFFICIENCY      75.0000
GLOBAL PRICE           0.0000
DEMAND CHARGE          0.0000

[EMITTERS]
;ID        Flow coefficient

[QUALITY]

[SOURCES]
;Node      Type       Quality    Pattern   

[REACTIONS]
;Type           Pipe/Tank               Coefficient

 ORDER BULK 1
 ORDER TANK 1
 ORDER WALL 1
 GLOBAL BULK 0.0000    
 GLOBAL WALL 0.0000    
 LIMITING POTENTIAL 0.0000    
 ROUGHNESS CORRELATION 0.0000    

[MIXING]
;Tank ID             Model Fraction

[TIMES]
DURATION             672:00:00
HYDRAULIC TIMESTEP   00:30:00
QUALITY TIMESTEP     00:05:00
PATTERN TIMESTEP     00:30:00
PATTERN START        00:00:00
REPORT TIMESTEP      00:30:00
REPORT START         00:00:00
START CLOCKTIME      00:00:00 AM
RULE TIMESTEP        00:06:00
STATISTIC            NONE      

[REPORT]
 Status             	No
 Summary            	No
 Page               	0
 Nodes					ALL
 Links					ALL
 Flow					Yes
 Headloss				No
 Velocity 				No
 Demand 				Yes
 Head 					Yes
 Pressure 				Yes
 Quality 				No
 State 					Yes

[OPTIONS]
UNITS                CMH                 
HEADLOSS             H-W                 
SPECIFIC GRAVITY     1
VISCOSITY            1
TRIALS               40
ACCURACY             0.001
CHECKFREQ            2
MAXCHECK             10
UNBALANCED           CONTINUE 10
DEMAND MULTIPLIER    1
DEMAND MODEL         PDA
MINIMUM PRESSURE     0.00
REQUIRED PRESSURE    0.10
PRESSURE EXPONENT    0.5
EMITTER EXPONENT     0.5
QUALITY              NONE                
DIFFUSIVITY          1
TOLERANCE            0.01

[COORDINATES]
;Node      X-Coord    Y-Coord   
1                4000.000000000       7000.000000000
2                5000.000000000       7000.000000000
3                4000.000000000       6000.000000000
4                5000.000000000       6000.000000000
5                4000.000000000       5000.000000000
6                5000.000000000       5000.000000000
7                6000.000000000       7000.000000000

[VERTICES]
;Link      X-Coord    Y-Coord   

[LABELS]

[BACKDROP]
DIMENSIONS    2900.000    4900.000    5100.000    7100.000
UNITS    METERS
OFFSET    0.00    0.00

[END]
