; Filename: D:/OneDrive/IHE_HI/015. Thesis/Github_repositories\Msc-Thesis/INP_FILES/Twoloops_Base_WNTR.inp
; WNTR: 0.4.2
; Created: 2023-03-07 09:38:04
[TITLE]

[JUNCTIONS]
;ID                      Elevation       Demand Pattern                 
 1                                160             100 35                         ;
 2                                150             100 35                         ;
 3                                150             270 35                         ;
 4                                155             120 35                         ;
 5                                160             200 35                         ;
 6                                165             330 35                         ;

[RESERVOIRS]
;ID                                   Head                  Pattern
 7                                210                            ;

[TANKS]
;ID                              Elevation           Init Level            Min Level            Max Level             Diameter           Min Volume Volume Curve         Overflow            

[PIPES]
;ID                   Node1                Node2                              Length             Diameter            Roughness           Minor Loss               Status
 1                    2                    1                               1000             200             130               0                 Open   ;
 2                    1                    3                               1000             150             130               0                 Open   ;
 3                    2                    4                               1000             450             130               0                 Open   ;
 4                    4                    3                               1000             150             130               0                 Open   ;
 5                    5                    3                               1000             150             130               0                 Open   ;
 6                    4                    6                               1000             400             130               0                 Open   ;
 7                    6                    5                               1000             250             130               0                 Open   ;
 8                    7                    2                               1000             450             130               0                 Open   ;

[PUMPS]
;ID                   Node1                Node2                Properties          

[VALVES]
;ID                   Node1                Node2                            Diameter Type              Setting           Minor Loss

[TAGS]
;type      name       tag       

[DEMANDS]
;ID        Demand     Pattern   

[STATUS]
;ID        Setting   

[PATTERNS]
;ID        Multipliers

35 1.058765 0.896357 0.907457 0.971854 0.906543 0.664304
35 0.778477 0.677367 0.659781 0.674042 0.639107 0.703586
35 0.645662 0.594276 0.601069 0.583897 0.638565 0.535724
35 0.555945 0.486378 0.390972 0.552454 0.556618 0.468620
35 0.613488 0.421858 0.489318 0.471274 0.545657 0.534083
35 0.464889 0.466495 0.401596 0.345972 0.406906 0.417538
35 0.449212 0.434938 0.361553 0.352900 0.314999 0.292074
35 0.273486 0.382680 0.296198 0.292332 0.263623 0.322646
35 0.251583 0.296987 0.281651 0.329532 0.309996 0.297350
35 0.347221 0.374740 0.372583 0.391541 0.363997 0.381114
35 0.373102 0.387572 0.369505 0.332145 0.407739 0.384566
35 0.336836 0.425690 0.377184 0.429436 0.477388 0.474957
35 0.556970 0.472264 0.608105 0.592758 0.632667 0.709969
35 0.791576 0.887258 0.837874 1.105574 1.129018 0.965763
35 1.378590 1.492660 1.459149 1.327331 1.244716 1.583404
35 1.407790 1.680877 1.556780 1.700007 1.625003 1.698206
35 1.601680 1.898488 1.639360 1.689543 1.933838 1.408978
35 1.420933 1.783045 1.431654 1.931702 1.545325 1.486081
35 1.907671 1.829769 1.883989 1.724285 1.438708 1.866527
35 1.517833 1.676048 1.688978 1.509641 1.616726 1.651528
35 1.556464 1.323417 1.516730 1.651222 1.341963 1.404392
35 1.347439 1.648553 1.465744 1.410479 1.233976 1.389554
35 1.212337 1.285707 1.183065 1.329600 1.298345 1.184858
35 1.240145 1.047582 0.986863 1.194264 1.147532 1.184781
35 1.362146 1.189293 0.976024 1.180926 0.912972 0.993193
35 1.025095 1.199463 0.941195 0.927392 0.996182 0.935916
35 1.112664 0.890949 0.884074 0.955563 0.950679 1.195336
35 1.098817 1.013682 0.882532 1.090936 0.904717 0.848355
35 1.118803 1.026590 1.079712 1.012368 1.055916 0.900651
35 0.855068 1.008165 0.858965 0.860713 0.873745 0.908797
35 0.868141 0.771088 0.832014 0.688751 0.938462 0.740623
35 0.784276 0.886999 0.818740 1.023627 0.775246 0.918667
35 0.896465 0.800164 0.960433 0.904187 0.999401 1.013158
35 1.149089 1.081127 0.927278 0.948845 1.089389 1.055706
35 1.064013 0.845889 1.015449 0.950873 1.064191 1.033407
35 1.147713 1.093802 1.152283 1.026105 0.981857 1.047369
35 1.098128 1.149819 1.367681 1.118715 1.023201 1.099908
35 1.094222 1.211290 0.984696 1.180080 1.199993 1.218249
35 1.128322 1.180909 1.045896 1.168855 1.172096 1.301008
35 1.112882 1.366234 1.466130 1.017460 1.344709 1.383115
35 1.217133 1.251589 1.288282 1.268019 1.267035 1.088173
35 1.457158 1.446501 1.198202 1.111886 1.369523 1.225772
35 1.318454 1.258307 1.389936 1.390905 1.206829 1.121901
35 1.096530 1.382876 1.148652 1.237504 1.225318 1.295022
35 1.048284 1.321812 1.361551 1.300703 1.243956 1.289865
35 1.320593 0.911597 1.496330 1.288968 1.148220 1.167356
35 1.259249 1.170017 0.929290 1.383709 1.113788 1.216596
35 1.005335 1.216535 1.056656 1.058972 0.866228 1.047820
35 0.962084 0.974070 0.774643 0.755750 0.939876 0.658213
35 0.701267 0.765970 0.673177 0.685201 0.604866 0.636987
35 0.521608 0.684487 0.568723 0.526610 0.592582 0.521747
35 0.467143 0.460180 0.561429 0.510285 0.505480 0.560741
35 0.443659 0.457583 0.468342 0.484795 0.471140 0.452301
35 0.454974 0.444674 0.409008 0.396354 0.433145 0.374484
35 0.353706 0.376130 0.370191 0.446023 0.327099 0.372523
35 0.354389 0.282142 0.336238 0.269531 0.221238 0.317522
35 0.247323 0.317125 0.288192 0.369908 0.361589 0.321869
35 0.324251 0.315720 0.353801 0.369391 0.374476 0.401656
35 0.423141 0.416084 0.371476 0.343726 0.455299 0.373040
35 0.376191 0.385656 0.338366 0.406797 0.423605 0.497998
35 0.534923 0.538999 0.639059 0.657969 0.691928 0.765718
35 0.801454 0.847465 0.922983 0.899807 1.109037 1.027736
35 1.300996 1.223469 1.311745 1.418400 1.483652 1.207397
35 1.436582 1.629613 1.266053 1.608730 1.215169 1.423951
35 1.606181 1.343950 1.459279 1.385187 1.895592 1.655198
35 1.720073 1.589277 1.564602 1.355910 1.564956 1.483826
35 1.737268 1.775673 1.820333 1.715828 1.480044 1.392303
35 1.679203 1.606824 1.269977 1.587921 1.647257 1.520992
35 1.472242 1.366798 1.259759 1.574526 1.397551 1.392440
35 1.652836 1.486503 1.424340 1.374510 1.540116 1.545176
35 1.420836 1.356247 0.998766 1.260768 1.211593 1.221432
35 1.305401 0.853916 1.093792 1.174875 1.076025 0.956188
35 1.195586 1.116747 0.969764 1.095711 1.137690 1.041807
35 1.114768 1.032029 0.976740 0.893729 0.997442 1.021901
35 1.087583 0.987317 1.044348 0.902920 0.922205 0.990937
35 0.897703 1.087309 1.052366 1.034071 1.039333 1.206130
35 0.953114 0.775997 1.008374 0.976133 0.922249 0.869072
35 0.911819 0.960949 0.887040 1.147481 0.827518 0.835259
35 0.694024 0.916493 0.709939 0.837893 0.858891 0.819319
35 1.034950 0.970141 1.000755 0.808541 0.990841 0.939153
35 0.969427 0.999258 0.829734 0.880933 1.007825 0.687487
35 1.087690 1.006417 0.958424 0.993552 0.880378 0.956111
35 1.110028 1.140025 1.292380 1.019053 0.967039 0.989982
35 0.944871 1.051917 1.109167 1.072620 1.203131 1.066573
35 1.061780 1.043422 0.933485 0.947329 0.997948 1.287602
35 1.250139 1.314545 1.008977 0.941808 1.103516 1.211538
35 1.259843 1.336462 1.254240 1.443772 1.211788 1.134994
35 1.046812 1.154584 1.306390 1.169022 1.410548 1.478383
35 0.991954 1.415986 1.013222 1.359412 1.467581 1.315751
35 1.139392 1.229120 1.270162 1.279209 1.275285 1.286370
35 1.327752 1.142721 1.268570 1.498006 1.251196 1.244229
35 1.443209 0.969779 1.457644 1.221198 1.324379 1.314405
35 1.422521 1.262606 1.206050 1.456635 0.980340 1.280021
35 1.098742 1.165248 1.503257 1.235041 1.252321 0.998417
35 1.112515 1.207028 1.207453 1.217679 1.127210 1.162152
35 1.129094 0.861571 1.031043 1.074849 1.024401 0.900616
35 0.827494 0.765485 0.815726 0.883900 0.614788 0.687672
35 0.629900 0.741764 0.629708 0.616986 0.616364 0.641615
35 0.576457 0.408283 0.606792 0.589850 0.543363 0.487654
35 0.558032 0.551966 0.500329 0.507321 0.464676 0.497147
35 0.422479 0.514254 0.441090 0.491699 0.406615 0.438184
35 0.452737 0.374849 0.445797 0.415071 0.348120 0.357533
35 0.424205 0.423026 0.371160 0.378630 0.359774 0.351634
35 0.372156 0.271957 0.333217 0.294046 0.294621 0.290322
35 0.288746 0.266234 0.315024 0.370269 0.324849 0.337109
35 0.324270 0.355127 0.387374 0.365975 0.371013 0.411407
35 0.363280 0.412178 0.435204 0.456040 0.397010 0.455459
35 0.444071 0.366329 0.364298 0.414188 0.490730 0.465520
35 0.469967 0.622430 0.601357 0.488668 0.714995 0.792781
35 0.835464 0.921981 0.941993 0.880498 1.038792 1.033157
35 1.088071 1.096284 1.364347 1.364883 1.331503 1.339359
35 1.463498 1.659421 1.219371 1.607119 1.483460 1.287213
35 1.288688 1.463784 1.654349 1.688093 1.474570 1.794071
35 1.859358 1.689855 1.526005 1.799208 1.733770 1.745449
35 1.494966 1.142031 1.923555 1.326351 1.568659 1.940291
35 1.611189 1.698823 1.311038 1.260821 1.442049 1.677013
35 1.448063 1.368732 1.501962 1.615584 1.233750 1.253136
35 1.297638 1.543564 1.405661 1.644219 1.462101 1.313829
35 1.464460 1.308734 1.174338 1.330041 1.142086 1.174923
35 1.351297 1.164229 1.066672 1.090878 1.244050 1.052481
35 1.057444 1.031209 1.093822 1.021319 0.882912 0.948877
35 0.935862 1.151332 1.099575 1.070308 0.955244 0.920648
35 0.949248 0.893751 1.248055 0.774936 1.056937 0.873286
35 0.993068 0.905601 0.887341 0.891291 1.181687 0.990006
35 0.923430 1.050356 0.989693 1.051740 0.795158 0.992617
35 1.027397 0.787007 0.975865 1.081264 0.914087 0.981730
35 0.960351 0.830758 0.892784 0.746887 0.843378 0.905342
35 0.945395 0.884567 0.947782 0.788989 0.881302 0.896497
35 1.066463 0.886589 0.867131 0.921933 0.842519 0.954115
35 0.910235 0.782834 0.957183 0.941247 0.821246 0.984132
35 1.148936 1.061650 1.080214 0.888919 1.084582 1.059143
35 1.107619 1.104977 0.923018 1.071850 1.002086 1.086683
35 1.001286 1.253213 1.019797 1.022469 1.139791 1.016610
35 1.098689 1.059733 1.328321 1.264809 1.174712 1.144027
35 1.312910 1.258707 1.280311 1.226289 1.030142 1.234994
35 1.191365 1.348982 1.404568 1.198631 1.350142 1.520297
35 1.213197 1.522584 1.194315 1.309939 1.305979 1.308776
35 1.197145 1.228369 1.217198 1.345556 1.344657 1.590183
35 1.478229 1.233543 1.342268 1.430229 1.305230 1.292950
35 1.309466 1.416358 1.193045 1.261118 1.364317 1.342412
35 1.331146 1.249346 1.419595 1.564423 1.336048 1.252746
35 1.365891 1.193305 1.157713 1.244644 0.911099 1.074663
35 1.158245 1.023552 1.045670 1.096835 0.941201 1.059143
35 1.022269 1.057200 1.145804 1.015416 0.969377 0.943918
35 1.058765

[CURVES]
;ID         X-Value      Y-Value     

[CONTROLS]

[RULES]

[ENERGY]
GLOBAL EFFICIENCY      75.0000
GLOBAL PRICE           0.0000
DEMAND CHARGE          0.0000

[EMITTERS]
;ID        Flow coefficient

[QUALITY]

[SOURCES]
;Node      Type       Quality    Pattern   

[REACTIONS]
;Type           Pipe/Tank               Coefficient

 ORDER BULK 1
 ORDER TANK 1
 ORDER WALL 1
 GLOBAL BULK 0.0000    
 GLOBAL WALL 0.0000    
 LIMITING POTENTIAL 0.0000    
 ROUGHNESS CORRELATION 0.0000    

[MIXING]
;Tank ID             Model Fraction

[TIMES]
DURATION             72:00:00
HYDRAULIC TIMESTEP   00:05:00
QUALITY TIMESTEP     00:05:00
PATTERN TIMESTEP     00:05:00
PATTERN START        00:00:00
REPORT TIMESTEP      00:05:00
REPORT START         00:00:00
START CLOCKTIME      00:00:00 AM
RULE TIMESTEP        00:06:00
STATISTIC            NONE      

[REPORT]
 Status             	No
 Summary            	No
 Page               	0
 Nodes					ALL
 Links					ALL
 Flow					Yes
 Headloss				No
 Velocity 				No
 Demand 				Yes
 Head 					Yes
 Pressure 				Yes
 Quality 				No
 State 					Yes

[OPTIONS]
UNITS                CMH                 
HEADLOSS             H-W                 
SPECIFIC GRAVITY     1
VISCOSITY            1
TRIALS               40
ACCURACY             0.001
CHECKFREQ            2
MAXCHECK             10
UNBALANCED           CONTINUE 10
DEMAND MULTIPLIER    1
DEMAND MODEL         PDA
MINIMUM PRESSURE     0.00
REQUIRED PRESSURE    0.10
PRESSURE EXPONENT    0.5
EMITTER EXPONENT     0.5
QUALITY              NONE                
DIFFUSIVITY          1
TOLERANCE            0.01

[COORDINATES]
;Node      X-Coord    Y-Coord   
1                4000.000000000       7000.000000000
2                5000.000000000       7000.000000000
3                4000.000000000       6000.000000000
4                5000.000000000       6000.000000000
5                4000.000000000       5000.000000000
6                5000.000000000       5000.000000000
7                6000.000000000       7000.000000000

[VERTICES]
;Link      X-Coord    Y-Coord   

[LABELS]

[BACKDROP]
DIMENSIONS    2900.000    4900.000    5100.000    7100.000
UNITS    METERS
OFFSET    0.00    0.00

[END]
