; Filename: D:/OneDrive/IHE_HI/015. Thesis/Github_repositories\Msc-Thesis/INP_FILES/Twoloops_Base_WNTR.inp
; WNTR: 0.4.2
; Created: 2023-03-07 09:37:36
[TITLE]

[JUNCTIONS]
;ID                      Elevation       Demand Pattern                 
 1                                160             100 2                          ;
 2                                150             100 2                          ;
 3                                150             270 2                          ;
 4                                155             120 2                          ;
 5                                160             200 2                          ;
 6                                165             330 2                          ;

[RESERVOIRS]
;ID                                   Head                  Pattern
 7                                210                            ;

[TANKS]
;ID                              Elevation           Init Level            Min Level            Max Level             Diameter           Min Volume Volume Curve         Overflow            

[PIPES]
;ID                   Node1                Node2                              Length             Diameter            Roughness           Minor Loss               Status
 1                    2                    1                               1000             200             130               0                 Open   ;
 2                    1                    3                               1000             150             130               0                 Open   ;
 3                    2                    4                               1000             450             130               0                 Open   ;
 4                    4                    3                               1000             150             130               0                 Open   ;
 5                    5                    3                               1000             150             130               0                 Open   ;
 6                    4                    6                               1000             400             130               0                 Open   ;
 7                    6                    5                               1000             250             130               0                 Open   ;
 8                    7                    2                               1000             450             130               0                 Open   ;

[PUMPS]
;ID                   Node1                Node2                Properties          

[VALVES]
;ID                   Node1                Node2                            Diameter Type              Setting           Minor Loss

[TAGS]
;type      name       tag       

[DEMANDS]
;ID        Demand     Pattern   

[STATUS]
;ID        Setting   

[PATTERNS]
;ID        Multipliers

2 1.027012 0.889459 0.891277 0.936271 0.878011 0.678695
2 0.764968 0.679449 0.661157 0.668725 0.637292 0.685720
2 0.636530 0.592847 0.595960 0.580126 0.621964 0.537969
2 0.552569 0.495462 0.417779 0.545675 0.547760 0.476133
2 0.590790 0.436217 0.488872 0.473072 0.531153 0.520398
2 0.463470 0.463096 0.409421 0.363063 0.409839 0.416253
2 0.439369 0.425602 0.364467 0.355100 0.322379 0.301742
2 0.284739 0.370187 0.299379 0.295011 0.271174 0.317991
2 0.261266 0.298278 0.287191 0.327077 0.313333 0.305311
2 0.347417 0.371662 0.372090 0.389242 0.368927 0.383983
2 0.378481 0.390463 0.376046 0.346005 0.406318 0.387786
2 0.349957 0.421925 0.384712 0.428992 0.470900 0.473748
2 0.545576 0.485570 0.603401 0.601474 0.644737 0.718694
2 0.796667 0.886267 0.859974 1.087302 1.118971 1.000822
2 1.342872 1.445082 1.428376 1.332195 1.274568 1.553197
2 1.419619 1.644258 1.550427 1.669756 1.613820 1.675792
2 1.601344 1.840953 1.635251 1.676485 1.872546 1.452873
2 1.462293 1.751531 1.469709 1.868832 1.558660 1.510091
2 1.846137 1.782576 1.824693 1.695636 1.465824 1.806658
2 1.526192 1.651147 1.659749 1.514395 1.598019 1.623638
2 1.545171 1.356111 1.507945 1.612548 1.361996 1.408659
2 1.359699 1.597096 1.447277 1.399435 1.254563 1.375334
2 1.229869 1.284892 1.199132 1.312752 1.284189 1.189899
2 1.230697 1.073294 1.021454 1.184211 1.143769 1.170632
2 1.309717 1.168767 0.995632 1.157195 0.940641 1.002805
2 1.026504 1.164374 0.956343 0.944101 0.998163 0.949218
2 1.090131 0.912522 0.906993 0.964313 0.960644 1.156669
2 1.079762 1.011922 0.907183 1.073948 0.924826 0.879354
2 1.095042 1.020282 1.061503 1.006114 1.039249 0.913195
2 0.874795 0.995299 0.873973 0.873462 0.882085 0.908480
2 0.874512 0.795672 0.843460 0.728135 0.927418 0.768881
2 0.803749 0.886078 0.831817 0.996261 0.798268 0.913888
2 0.897172 0.821329 0.950881 0.907343 0.985079 0.997741
2 1.108216 1.055635 0.934388 0.953499 1.067804 1.042721
2 1.051211 0.878521 1.015944 0.966027 1.058396 1.035455
2 1.128564 1.087076 1.135482 1.036145 1.002337 1.056326
2 1.098502 1.141418 1.317270 1.119664 1.044832 1.107792
2 1.104861 1.200162 1.020567 1.178596 1.196295 1.212720
2 1.142658 1.186665 1.080630 1.180986 1.185552 1.290615
2 1.141980 1.346435 1.428005 1.070578 1.333714 1.365578
2 1.233707 1.261945 1.291752 1.275803 1.275115 1.131993
2 1.427046 1.418311 1.219419 1.150100 1.355958 1.240750
2 1.314763 1.266608 1.371955 1.372833 1.225713 1.157924
2 1.137773 1.366965 1.179648 1.250717 1.240858 1.296390
2 1.098627 1.316914 1.347995 1.298423 1.251938 1.287377
2 1.310458 0.981539 1.447372 1.279289 1.164248 1.176855
2 1.247399 1.172765 0.976649 1.336352 1.116278 1.194072
2 1.020285 1.184133 1.050773 1.046817 0.886451 1.025180
2 1.027012

[CURVES]
;ID         X-Value      Y-Value     

[CONTROLS]

[RULES]

[ENERGY]
GLOBAL EFFICIENCY      75.0000
GLOBAL PRICE           0.0000
DEMAND CHARGE          0.0000

[EMITTERS]
;ID        Flow coefficient

[QUALITY]

[SOURCES]
;Node      Type       Quality    Pattern   

[REACTIONS]
;Type           Pipe/Tank               Coefficient

 ORDER BULK 1
 ORDER TANK 1
 ORDER WALL 1
 GLOBAL BULK 0.0000    
 GLOBAL WALL 0.0000    
 LIMITING POTENTIAL 0.0000    
 ROUGHNESS CORRELATION 0.0000    

[MIXING]
;Tank ID             Model Fraction

[TIMES]
DURATION             24:00:00
HYDRAULIC TIMESTEP   00:05:00
QUALITY TIMESTEP     00:05:00
PATTERN TIMESTEP     00:05:00
PATTERN START        00:00:00
REPORT TIMESTEP      00:05:00
REPORT START         00:00:00
START CLOCKTIME      00:00:00 AM
RULE TIMESTEP        00:06:00
STATISTIC            NONE      

[REPORT]
 Status             	No
 Summary            	No
 Page               	0
 Nodes					ALL
 Links					ALL
 Flow					Yes
 Headloss				No
 Velocity 				No
 Demand 				Yes
 Head 					Yes
 Pressure 				Yes
 Quality 				No
 State 					Yes

[OPTIONS]
UNITS                CMH                 
HEADLOSS             H-W                 
SPECIFIC GRAVITY     1
VISCOSITY            1
TRIALS               40
ACCURACY             0.001
CHECKFREQ            2
MAXCHECK             10
UNBALANCED           CONTINUE 10
DEMAND MULTIPLIER    1
DEMAND MODEL         PDA
MINIMUM PRESSURE     0.00
REQUIRED PRESSURE    0.10
PRESSURE EXPONENT    0.5
EMITTER EXPONENT     0.5
QUALITY              NONE                
DIFFUSIVITY          1
TOLERANCE            0.01

[COORDINATES]
;Node      X-Coord    Y-Coord   
1                4000.000000000       7000.000000000
2                5000.000000000       7000.000000000
3                4000.000000000       6000.000000000
4                5000.000000000       6000.000000000
5                4000.000000000       5000.000000000
6                5000.000000000       5000.000000000
7                6000.000000000       7000.000000000

[VERTICES]
;Link      X-Coord    Y-Coord   

[LABELS]

[BACKDROP]
DIMENSIONS    2900.000    4900.000    5100.000    7100.000
UNITS    METERS
OFFSET    0.00    0.00

[END]
