; Filename: D:/OneDrive/IHE_HI/015. Thesis/Github_repositories\Msc-Thesis/INP_FILES/Twoloops_Base_WNTR.inp
; WNTR: 0.4.2
; Created: 2023-03-07 09:38:07
[TITLE]

[JUNCTIONS]
;ID                      Elevation       Demand Pattern                 
 1                                160             100 36                         ;
 2                                150             100 36                         ;
 3                                150             270 36                         ;
 4                                155             120 36                         ;
 5                                160             200 36                         ;
 6                                165             330 36                         ;

[RESERVOIRS]
;ID                                   Head                  Pattern
 7                                210                            ;

[TANKS]
;ID                              Elevation           Init Level            Min Level            Max Level             Diameter           Min Volume Volume Curve         Overflow            

[PIPES]
;ID                   Node1                Node2                              Length             Diameter            Roughness           Minor Loss               Status
 1                    2                    1                               1000             200             130               0                 Open   ;
 2                    1                    3                               1000             150             130               0                 Open   ;
 3                    2                    4                               1000             450             130               0                 Open   ;
 4                    4                    3                               1000             150             130               0                 Open   ;
 5                    5                    3                               1000             150             130               0                 Open   ;
 6                    4                    6                               1000             400             130               0                 Open   ;
 7                    6                    5                               1000             250             130               0                 Open   ;
 8                    7                    2                               1000             450             130               0                 Open   ;

[PUMPS]
;ID                   Node1                Node2                Properties          

[VALVES]
;ID                   Node1                Node2                            Diameter Type              Setting           Minor Loss

[TAGS]
;type      name       tag       

[DEMANDS]
;ID        Demand     Pattern   

[STATUS]
;ID        Setting   

[PATTERNS]
;ID        Multipliers

36 0.963506 0.806648 0.738764 0.705493 0.644821 0.542955
36 0.559555 0.515420 0.497936 0.488152 0.460433 0.456525
36 0.412177 0.365672 0.335605 0.309806 0.317929 0.314654
36 0.352562 0.367062 0.359152 0.411941 0.416357 0.414534
36 0.545395 0.599317 0.818527 1.006618 1.273573 1.431093
36 1.476026 1.572177 1.543182 1.495558 1.605081 1.627465
36 1.678739 1.657077 1.535468 1.514868 1.437087 1.375047
36 1.312593 1.461009 1.273498 1.223537 1.133126 1.179576
36 1.028988 1.053229 0.995169 1.026585 0.979568 0.952122
36 1.002408 1.023230 1.002661 0.992967 0.929506 0.911046
36 0.875791 0.872933 0.852967 0.825559 0.906387 0.905183
36 0.883119 0.990111 0.963708 1.028776 1.082645 1.081859
36 1.150134 1.067971 1.165882 1.140539 1.158202 1.201041
36 1.242690 1.285932 1.239412 1.354032 1.330933 1.222888
36 1.377389 1.399177 1.364173 1.294189 1.244321 1.343683
36 1.249438 1.301235 1.209997 1.191732 1.095478 1.026409
36 0.900378 0.850655 0.714541 0.657868 0.645196 0.534581
36 0.511673 0.538667 0.476538 0.517602 0.450221 0.418530
36 0.430767 0.385451 0.354384 0.316805 0.289665 0.341496
36 0.344469 0.392245 0.415156 0.398957 0.412327 0.442976
36 0.507529 0.608352 0.826778 1.068021 1.166661 1.343560
36 1.441400 1.663312 1.643027 1.650723 1.577605 1.652237
36 1.556843 1.583049 1.519964 1.574901 1.534595 1.445707
36 1.431056 1.296002 1.222455 1.267248 1.200858 1.173057
36 1.204858 1.102400 0.994453 1.056109 0.947364 0.980864
36 1.000800 1.074939 0.970210 0.948665 0.949949 0.899925
36 0.940559 0.847412 0.841177 0.871263 0.882071 0.990973
36 0.980600 0.975520 0.950983 1.061317 1.009878 1.009800
36 1.152273 1.137705 1.189680 1.187612 1.241128 1.197492
36 1.206314 1.318030 1.258223 1.270891 1.282787 1.303865
36 1.281592 1.229021 1.269208 1.187637 1.332512 1.206682
36 1.213819 1.243162 1.164501 1.217715 1.024227 1.008860
36 0.898586 0.756844 0.725812 0.643015 0.618523 0.583655
36 0.585714 0.546282 0.492616 0.475665 0.477932 0.442737
36 0.410242 0.340364 0.329430 0.296700 0.303359 0.316012
36 0.360879 0.384868 0.412581 0.393956 0.387238 0.420210
36 0.499660 0.645986 0.890868 1.012497 1.154115 1.332945
36 1.439731 1.578578 1.501389 1.628360 1.637924 1.632371
36 1.561772 1.565990 1.470791 1.503152 1.467428 1.482116
36 1.343590 1.397606 1.377713 1.142245 1.213244 1.174973
36 1.071953 1.045388 1.026653 0.998898 0.987639 0.932320
36 1.049796 1.049438 0.967465 0.923549 0.973582 0.903168
36 0.905110 0.874358 0.906031 0.911438 0.873878 0.869062
36 0.884905 0.995850 0.952446 1.005830 1.026873 1.074043
36 1.014804 1.131946 1.171460 1.176809 1.185077 1.234299
36 1.278458 1.140754 1.401707 1.327332 1.272498 1.282578
36 1.325675 1.294509 1.196928 1.411220 1.294252 1.341916
36 1.234764 1.316813 1.213744 1.174858 1.034924 1.046555
36 0.963506

[CURVES]
;ID         X-Value      Y-Value     

[CONTROLS]

[RULES]

[ENERGY]
GLOBAL EFFICIENCY      75.0000
GLOBAL PRICE           0.0000
DEMAND CHARGE          0.0000

[EMITTERS]
;ID        Flow coefficient

[QUALITY]

[SOURCES]
;Node      Type       Quality    Pattern   

[REACTIONS]
;Type           Pipe/Tank               Coefficient

 ORDER BULK 1
 ORDER TANK 1
 ORDER WALL 1
 GLOBAL BULK 0.0000    
 GLOBAL WALL 0.0000    
 LIMITING POTENTIAL 0.0000    
 ROUGHNESS CORRELATION 0.0000    

[MIXING]
;Tank ID             Model Fraction

[TIMES]
DURATION             72:00:00
HYDRAULIC TIMESTEP   00:15:00
QUALITY TIMESTEP     00:05:00
PATTERN TIMESTEP     00:15:00
PATTERN START        00:00:00
REPORT TIMESTEP      00:15:00
REPORT START         00:00:00
START CLOCKTIME      00:00:00 AM
RULE TIMESTEP        00:06:00
STATISTIC            NONE      

[REPORT]
 Status             	No
 Summary            	No
 Page               	0
 Nodes					ALL
 Links					ALL
 Flow					Yes
 Headloss				No
 Velocity 				No
 Demand 				Yes
 Head 					Yes
 Pressure 				Yes
 Quality 				No
 State 					Yes

[OPTIONS]
UNITS                CMH                 
HEADLOSS             H-W                 
SPECIFIC GRAVITY     1
VISCOSITY            1
TRIALS               40
ACCURACY             0.001
CHECKFREQ            2
MAXCHECK             10
UNBALANCED           CONTINUE 10
DEMAND MULTIPLIER    1
DEMAND MODEL         PDA
MINIMUM PRESSURE     0.00
REQUIRED PRESSURE    0.10
PRESSURE EXPONENT    0.5
EMITTER EXPONENT     0.5
QUALITY              NONE                
DIFFUSIVITY          1
TOLERANCE            0.01

[COORDINATES]
;Node      X-Coord    Y-Coord   
1                4000.000000000       7000.000000000
2                5000.000000000       7000.000000000
3                4000.000000000       6000.000000000
4                5000.000000000       6000.000000000
5                4000.000000000       5000.000000000
6                5000.000000000       5000.000000000
7                6000.000000000       7000.000000000

[VERTICES]
;Link      X-Coord    Y-Coord   

[LABELS]

[BACKDROP]
DIMENSIONS    2900.000    4900.000    5100.000    7100.000
UNITS    METERS
OFFSET    0.00    0.00

[END]
