; Filename: D:/OneDrive/IHE_HI/015. Thesis/Github_repositories\Msc-Thesis/INP_FILES/Twoloops_Base_WNTR.inp
; WNTR: 0.4.2
; Created: 2023-03-07 09:38:51
[TITLE]

[JUNCTIONS]
;ID                      Elevation       Demand Pattern                 
 1                                160             100 60                         ;
 2                                150             100 60                         ;
 3                                150             270 60                         ;
 4                                155             120 60                         ;
 5                                160             200 60                         ;
 6                                165             330 60                         ;

[RESERVOIRS]
;ID                                   Head                  Pattern
 7                                210                            ;

[TANKS]
;ID                              Elevation           Init Level            Min Level            Max Level             Diameter           Min Volume Volume Curve         Overflow            

[PIPES]
;ID                   Node1                Node2                              Length             Diameter            Roughness           Minor Loss               Status
 1                    2                    1                               1000             200             130               0                 Open   ;
 2                    1                    3                               1000             150             130               0                 Open   ;
 3                    2                    4                               1000             450             130               0                 Open   ;
 4                    4                    3                               1000             150             130               0                 Open   ;
 5                    5                    3                               1000             150             130               0                 Open   ;
 6                    4                    6                               1000             400             130               0                 Open   ;
 7                    6                    5                               1000             250             130               0                 Open   ;
 8                    7                    2                               1000             450             130               0                 Open   ;

[PUMPS]
;ID                   Node1                Node2                Properties          

[VALVES]
;ID                   Node1                Node2                            Diameter Type              Setting           Minor Loss

[TAGS]
;type      name       tag       

[DEMANDS]
;ID        Demand     Pattern   

[STATUS]
;ID        Setting   

[PATTERNS]
;ID        Multipliers

60 0.963506 0.609604 0.519575 0.435854 0.322411 0.384364
60 0.519002 1.192735 1.593394 1.626278 1.508643 1.375622
60 1.133486 1.004867 1.017755 0.912012 0.953787 0.991794
60 1.113775 1.159003 1.167245 1.333988 1.344951 1.164376
60 0.981711 0.565095 0.500915 0.397005 0.318393 0.423510
60 0.503099 1.218152 1.543182 1.473229 1.479125 1.308130
60 1.154133 1.048095 0.984507 0.889117 0.862252 0.943199
60 1.024924 1.293637 1.273498 1.277220 1.234855 1.237320
60 0.841900 0.594894 0.482091 0.406190 0.293870 0.381110
60 0.499436 1.220560 1.604257 1.619358 1.461941 1.281137
60 1.070412 0.985618 0.967474 0.837854 0.906387 0.983929
60 1.028271 1.222214 1.252820 1.302701 1.337913 1.206191
60 0.941018 0.570364 0.508047 0.389043 0.289550 0.390738
60 0.493769 1.202696 1.525430 1.657653 1.527940 1.220115
60 1.165483 1.075836 1.047151 0.893523 0.861453 1.042178
60 1.082260 1.258677 1.310830 1.350785 1.318531 1.233916
60 0.900378 0.642861 0.502538 0.406432 0.322598 0.378436
60 0.474590 1.246531 1.524920 1.724392 1.475183 1.261132
60 1.184609 1.059221 1.074702 0.932618 0.868996 1.076403
60 1.088208 1.238518 1.349257 1.291939 1.331932 1.244266
60 0.913551 0.573614 0.505965 0.421222 0.291665 0.397606
60 0.491297 1.288765 1.643027 1.626078 1.453805 1.328041
60 1.070329 1.001273 0.974566 0.924352 0.920757 0.991668
60 1.117424 1.147533 1.222455 1.322848 1.308667 1.230482
60 0.985793 0.622668 0.481744 0.417872 0.284209 0.392615
60 0.498635 1.282240 1.552336 1.547108 1.494093 1.265499
60 1.149572 0.956803 0.954101 0.884238 0.882071 1.077181
60 1.141775 1.204202 1.236277 1.343907 1.247989 1.125851
60 0.963506

[CURVES]
;ID         X-Value      Y-Value     

[CONTROLS]

[RULES]

[ENERGY]
GLOBAL EFFICIENCY      75.0000
GLOBAL PRICE           0.0000
DEMAND CHARGE          0.0000

[EMITTERS]
;ID        Flow coefficient

[QUALITY]

[SOURCES]
;Node      Type       Quality    Pattern   

[REACTIONS]
;Type           Pipe/Tank               Coefficient

 ORDER BULK 1
 ORDER TANK 1
 ORDER WALL 1
 GLOBAL BULK 0.0000    
 GLOBAL WALL 0.0000    
 LIMITING POTENTIAL 0.0000    
 ROUGHNESS CORRELATION 0.0000    

[MIXING]
;Tank ID             Model Fraction

[TIMES]
DURATION             168:00:00
HYDRAULIC TIMESTEP   01:00:00
QUALITY TIMESTEP     00:05:00
PATTERN TIMESTEP     01:00:00
PATTERN START        00:00:00
REPORT TIMESTEP      01:00:00
REPORT START         00:00:00
START CLOCKTIME      00:00:00 AM
RULE TIMESTEP        00:06:00
STATISTIC            NONE      

[REPORT]
 Status             	No
 Summary            	No
 Page               	0
 Nodes					ALL
 Links					ALL
 Flow					Yes
 Headloss				No
 Velocity 				No
 Demand 				Yes
 Head 					Yes
 Pressure 				Yes
 Quality 				No
 State 					Yes

[OPTIONS]
UNITS                CMH                 
HEADLOSS             H-W                 
SPECIFIC GRAVITY     1
VISCOSITY            1
TRIALS               40
ACCURACY             0.001
CHECKFREQ            2
MAXCHECK             10
UNBALANCED           CONTINUE 10
DEMAND MULTIPLIER    1
DEMAND MODEL         PDA
MINIMUM PRESSURE     0.00
REQUIRED PRESSURE    0.10
PRESSURE EXPONENT    0.5
EMITTER EXPONENT     0.5
QUALITY              NONE                
DIFFUSIVITY          1
TOLERANCE            0.01

[COORDINATES]
;Node      X-Coord    Y-Coord   
1                4000.000000000       7000.000000000
2                5000.000000000       7000.000000000
3                4000.000000000       6000.000000000
4                5000.000000000       6000.000000000
5                4000.000000000       5000.000000000
6                5000.000000000       5000.000000000
7                6000.000000000       7000.000000000

[VERTICES]
;Link      X-Coord    Y-Coord   

[LABELS]

[BACKDROP]
DIMENSIONS    2900.000    4900.000    5100.000    7100.000
UNITS    METERS
OFFSET    0.00    0.00

[END]
