; Filename: D:/OneDrive/IHE_HI/015. Thesis/Github_repositories\Msc-Thesis/INP_FILES/Twoloops_Base_WNTR.inp
; WNTR: 0.4.2
; Created: 2023-03-07 09:40:29
[TITLE]

[JUNCTIONS]
;ID                      Elevation       Demand Pattern                 
 1                                160             100 70                         ;
 2                                150             100 70                         ;
 3                                150             270 70                         ;
 4                                155             120 70                         ;
 5                                160             200 70                         ;
 6                                165             330 70                         ;

[RESERVOIRS]
;ID                                   Head                  Pattern
 7                                210                            ;

[TANKS]
;ID                              Elevation           Init Level            Min Level            Max Level             Diameter           Min Volume Volume Curve         Overflow            

[PIPES]
;ID                   Node1                Node2                              Length             Diameter            Roughness           Minor Loss               Status
 1                    2                    1                               1000             200             130               0                 Open   ;
 2                    1                    3                               1000             150             130               0                 Open   ;
 3                    2                    4                               1000             450             130               0                 Open   ;
 4                    4                    3                               1000             150             130               0                 Open   ;
 5                    5                    3                               1000             150             130               0                 Open   ;
 6                    4                    6                               1000             400             130               0                 Open   ;
 7                    6                    5                               1000             250             130               0                 Open   ;
 8                    7                    2                               1000             450             130               0                 Open   ;

[PUMPS]
;ID                   Node1                Node2                Properties          

[VALVES]
;ID                   Node1                Node2                            Diameter Type              Setting           Minor Loss

[TAGS]
;type      name       tag       

[DEMANDS]
;ID        Demand     Pattern   

[STATUS]
;ID        Setting   

[PATTERNS]
;ID        Multipliers

70 1.027012 0.819356 0.766597 0.763528 0.689643 0.520866
70 0.580041 0.512281 0.495871 0.496040 0.463071 0.481622
70 0.424353 0.367443 0.341460 0.313886 0.335858 0.312050
70 0.356923 0.354078 0.318304 0.422437 0.430273 0.401852
70 0.590790 0.562298 0.820022 0.999024 1.347147 1.510535
70 1.485118 1.595605 1.486363 1.366865 1.582429 1.637580
70 1.757477 1.733117 1.511304 1.496326 1.374174 1.292240
70 1.216445 1.566762 1.246996 1.201715 1.073348 1.215153
70 0.957977 1.044190 0.958199 1.042230 0.959136 0.904929
70 1.001277 1.040466 1.005321 1.004838 0.905308 0.897632
70 0.851583 0.860195 0.824291 0.764325 0.912775 0.890398
70 0.821516 1.008106 0.927416 1.030909 1.113324 1.087412
70 1.200267 1.012480 1.184348 1.108417 1.116403 1.172573
70 1.227008 1.288814 1.178824 1.401125 1.355270 1.142822
70 1.454778 1.497805 1.425599 1.284808 1.188642 1.398064
70 1.228958 1.361896 1.219994 1.236537 1.110875 1.054621
70 0.900756 0.907370 0.718150 0.668279 0.690391 0.504119
70 0.484278 0.558775 0.453075 0.554940 0.442647 0.405631
70 0.461534 0.407002 0.379017 0.327885 0.279331 0.365736
70 0.340736 0.404443 0.430312 0.396467 0.422212 0.458736
70 0.515057 0.580368 0.836525 1.121830 1.133321 1.335470
70 1.415866 1.777874 1.686054 1.677196 1.527476 1.687123
70 1.513685 1.585062 1.480297 1.616391 1.569191 1.433560
70 1.453371 1.236747 1.144909 1.289136 1.208811 1.202116
70 1.309717 1.142532 0.956766 1.101278 0.894727 0.962413
70 0.998061 1.143883 0.940420 0.916232 0.946193 0.875391
70 0.981118 0.809154 0.800711 0.855733 0.864142 1.061977
70 1.016478 0.978925 0.901965 1.095991 0.967790 0.943294
70 1.204547 1.151948 1.231944 1.202562 1.282256 1.165474
70 1.154255 1.353011 1.216445 1.234843 1.258980 1.304776
70 1.263185 1.157494 1.235669 1.071702 1.365024 1.124060
70 1.157720 1.245751 1.129002 1.288504 0.968371 1.019523
70 0.897172 0.719749 0.740693 0.638572 0.637046 0.602268
70 0.632359 0.574005 0.485233 0.471067 0.498069 0.454045
70 0.420484 0.316828 0.329109 0.287674 0.306718 0.314766
70 0.373556 0.389690 0.425162 0.386466 0.372035 0.413203
70 0.499319 0.655637 0.964705 1.010783 1.108229 1.314239
70 1.412529 1.608406 1.402778 1.632470 1.648114 1.647392
70 1.523544 1.550943 1.381951 1.472894 1.434857 1.506377
70 1.278440 1.439955 1.455426 1.039130 1.233584 1.205948
70 1.043906 1.028508 1.021167 0.986856 0.975279 0.865326
70 1.096052 1.092881 0.934931 0.866001 0.993460 0.881876
70 0.910221 0.863045 0.930418 0.936082 0.847757 0.818156
70 0.825088 1.019585 0.904891 0.985017 1.001781 1.071779
70 0.929607 1.140429 1.195505 1.180956 1.170155 1.239090
70 1.298544 0.998459 1.503415 1.347725 1.238401 1.262203
70 1.351349 1.288469 1.091109 1.518868 1.288504 1.394528
70 1.199610 1.393053 1.227489 1.202790 0.989765 1.094914
70 0.949667 0.876627 0.675210 0.622542 0.710588 0.517126
70 0.533205 0.565723 0.503909 0.502662 0.443166 0.444201
70 0.358191 0.412173 0.326634 0.289089 0.315993 0.305564
70 0.311035 0.339101 0.422201 0.396321 0.398137 0.464051
70 0.454927 0.599139 0.791874 1.021867 1.195952 1.320629
70 1.459702 1.535455 1.507891 1.518610 1.663481 1.502077
70 1.451859 1.541537 1.539959 1.810249 1.415436 1.567865
70 1.492948 1.226351 1.380418 1.127411 0.939134 1.199488
70 0.945482 1.100590 0.975659 1.145156 1.085481 0.963069
70 0.948317 0.908286 0.964726 0.959093 0.925880 0.936049
70 0.941654 0.910445 0.827747 0.784792 0.998246 0.869227
70 0.895424 0.931583 0.852554 0.987386 1.011599 1.129721
70 1.161464 1.123801 1.232953 1.204554 1.198495 1.245338
70 1.239179 1.242520 1.272156 1.188999 1.335909 1.199435
70 1.387530 1.274594 1.307905 1.355071 1.366905 1.127302
70 1.248898 1.327928 1.036982 1.182461 0.885187 0.916544
70 0.902781 0.688714 0.654881 0.571221 0.679110 0.572466
70 0.563533 0.509322 0.485863 0.418157 0.447107 0.405146
70 0.427454 0.397121 0.368439 0.326577 0.285632 0.288935
70 0.369558 0.390878 0.343407 0.412862 0.428665 0.429231
70 0.492598 0.595221 0.722482 1.079145 1.170325 1.326405
70 1.670277 1.633560 1.647466 1.642710 1.825665 1.839845
70 1.718977 1.654678 1.298287 1.548588 1.484387 1.468812
70 1.515022 1.058220 1.240792 1.272250 1.148353 1.014323
70 1.176469 1.085798 0.951954 1.036400 1.065727 0.999738
70 1.067811 1.012292 0.968382 0.890097 0.947148 0.938829
70 0.963060 0.877515 0.913905 0.818361 0.843651 0.911844
70 0.865016 1.035906 1.037050 1.049565 1.080487 1.250327
70 1.058740 0.925603 1.165710 1.167914 1.150318 1.133231
70 1.214159 1.301663 1.247707 1.559173 1.206196 1.220283
70 1.061984 1.326714 1.092597 1.247314 1.271330 1.216099
70 1.446576 1.339263 1.326637 1.065961 1.177600 1.037806
70 0.955541 0.859325 0.659246 0.625479 0.641405 0.445000
70 0.604331 0.541506 0.498172 0.488736 0.420075 0.419351
70 0.435209 0.401689 0.400877 0.303917 0.284195 0.304206
70 0.319843 0.377679 0.412247 0.400346 0.437739 0.419212
70 0.486102 0.606745 0.710318 0.887008 1.086801 1.492377
70 1.571997 1.719108 1.429477 1.368447 1.541782 1.640099
70 1.663832 1.713587 1.595101 1.747189 1.473287 1.351363
70 1.219269 1.258875 1.325180 1.156818 1.282301 1.273254
70 0.891476 1.135697 0.847212 1.043411 1.097990 1.004500
70 0.900802 0.958879 0.979068 0.966793 0.938224 0.916333
70 0.915371 0.800039 0.864573 0.994504 0.872306 0.887303
70 1.026211 0.773090 1.094510 0.974743 1.065761 1.084599
70 1.182937 1.099412 1.085177 1.294416 0.973039 1.231509
70 1.122677 1.204878 1.509171 1.302276 1.326985 1.117251
70 1.224179 1.321000 1.339720 1.367904 1.300897 1.343660
70 1.316019 1.058979 1.203553 1.217385 1.131052 0.969141
70 0.841995 0.722910 0.703478 0.706147 0.506313 0.535213
70 0.489914 0.551124 0.477828 0.462182 0.449850 0.446801
70 0.387444 0.275221 0.344083 0.316463 0.294731 0.289744
70 0.358001 0.391576 0.384959 0.394485 0.372495 0.421113
70 0.437983 0.657580 0.755305 1.033530 1.065028 1.287846
70 1.453967 1.342989 1.614739 1.574984 1.400846 1.448726
70 1.677455 1.694309 1.543173 1.583064 1.526861 1.496297
70 1.553670 1.191868 1.370352 1.207301 1.171503 1.116336
70 1.066987 0.958065 1.047277 1.146077 0.995509 0.999204
70 0.948361 0.996540 1.037293 0.952038 0.919081 0.954283
70 0.833904 0.903561 0.939502 0.983273 0.893492 1.020620
70 1.022901 0.894641 0.902565 1.001595 1.138558 1.070082
70 1.047142 1.262973 1.173751 0.954960 1.230447 1.280661
70 1.281084 1.329209 1.293003 1.169094 1.267846 1.204387
70 1.202995 1.169134 1.349905 1.313780 1.253391 1.222328
70 1.267538 1.347679 1.007595 1.181506 1.032929 0.847702
70 0.759909 0.735965 0.723416 0.667817 0.554929 0.611015
70 0.600435 0.534991 0.476344 0.523466 0.485461 0.461367
70 0.378993 0.281381 0.385592 0.266326 0.299142 0.377682
70 0.357410 0.408906 0.351923 0.344355 0.385291 0.464496
70 0.486150 0.595883 0.829971 1.101996 1.061286 1.220752
70 1.374380 1.684376 1.630057 1.901302 1.749676 1.612810
70 1.761930 1.607787 1.471678 1.616825 1.416441 1.423986
70 1.558381 1.344276 1.216473 1.199099 1.290417 1.093429
70 1.065955 1.018903 1.047326 0.979763 0.871853 0.928389
70 0.928652 1.106056 1.065014 1.027190 0.915147 0.864126
70 0.863459 0.811141 1.057774 0.727503 0.940609 0.825429
70 0.936837 0.895280 0.905790 0.932996 1.199660 1.064855
70 1.032618 1.173415 1.148366 1.240210 1.024871 1.259372
70 1.336159 1.112496 1.346612 1.484283 1.305042 1.388575
70 1.369739 1.226937 1.306891 1.140156 1.253064 1.316707
70 1.343380 1.243016 1.269118 1.045730 1.071295 0.999737
70 1.033171 0.780337 0.682550 0.648563 0.555883 0.573756
70 0.523325 0.444247 0.497657 0.468064 0.398010 0.429112
70 0.447659 0.379077 0.345893 0.272915 0.311446 0.321025
70 0.362939 0.392895 0.356487 0.400116 0.378042 0.425505
70 0.464104 0.703149 0.760887 0.941274 1.207160 1.235182
70 1.417098 1.445918 1.780630 1.726357 1.620250 1.566732
70 1.720437 1.632288 1.621774 1.530197 1.297412 1.444737
70 1.348730 1.425195 1.405232 1.179809 1.237604 1.302865
70 1.041241 1.205201 0.961740 1.012796 0.999108 1.000234
70 0.936288 0.958416 0.946582 1.006760 0.978885 1.089083
70 0.998711 0.849547 0.904557 0.957533 0.902203 0.914843
70 0.948621 1.039563 0.932134 0.999895 1.091556 1.103123
70 1.121083 1.090226 1.236688 1.372846 1.239016 1.210508
70 1.334453 1.227711 1.222032 1.310369 1.036622 1.182671
70 1.263812 1.159737 1.195125 1.258025 1.129132 1.247419
70 1.215538 1.243095 1.310802 1.162754 1.081902 1.006139
70 0.916372 0.729362 0.704404 0.663450 0.534204 0.604173
70 0.585703 0.492367 0.490346 0.446523 0.483409 0.394801
70 0.392881 0.338896 0.331095 0.261842 0.331835 0.292775
70 0.349870 0.373584 0.375612 0.372934 0.432589 0.409252
70 0.510847 0.595534 0.774730 1.052528 1.289319 1.332693
70 1.300065 1.796297 1.490362 1.423936 1.965576 1.565073
70 1.412898 1.494593 1.605490 1.556757 1.397792 1.670435
70 1.349959 1.226813 1.399912 1.377773 1.114890 1.015747
70 1.190679 0.888284 0.930855 1.089182 0.995572 0.978214
70 1.031864 0.993699 0.896105 1.081254 1.054798 0.939645
70 0.903250 1.051442 0.862146 0.868378 0.926243 1.028254
70 1.065101 0.952007 1.024666 0.913458 1.025710 1.003953
70 1.011399 1.274597 1.074689 1.122790 1.235121 1.357164
70 1.306806 1.566280 1.292235 1.333989 1.335403 1.452539
70 1.352753 1.288456 1.204000 1.329063 1.445740 1.246975
70 1.323655 1.265003 1.282898 1.073087 1.282848 0.896049
70 0.873680 0.853523 0.727808 0.690448 0.576187 0.561661
70 0.539596 0.583660 0.527617 0.510873 0.433700 0.464869
70 0.407219 0.404342 0.382882 0.298222 0.290249 0.295327
70 0.344202 0.368431 0.411504 0.396803 0.390800 0.463602
70 0.462485 0.658383 0.790498 1.072984 1.332985 1.318876
70 1.518691 1.570903 1.497674 1.655538 1.665383 1.670771
70 1.574605 1.592950 1.416443 1.489480 1.566716 1.561942
70 1.361146 1.366610 1.323718 1.265433 1.244512 0.977608
70 1.095659 1.082582 0.949541 1.146323 1.012925 1.124301
70 0.940073 0.932975 1.017940 0.849341 0.970106 0.931649
70 0.973128 0.935342 0.852198 0.808933 1.023286 0.861671
70 0.865704 0.887747 1.089384 0.984024 0.988536 1.088161
70 1.081789 1.062517 1.216627 1.272602 1.294590 1.304944
70 1.298905 1.100765 1.473602 1.338513 1.370164 1.419174
70 1.449069 1.344081 1.348139 1.241081 1.303441 1.201201
70 1.196777 1.151890 1.185022 1.243185 1.354075 1.013330
70 0.802914 0.874286 0.693825 0.613240 0.610073 0.508962
70 0.548662 0.514893 0.503935 0.494919 0.460267 0.431993
70 0.409098 0.375994 0.302540 0.270750 0.298521 0.280893
70 0.350640 0.408587 0.419428 0.367783 0.374745 0.438437
70 0.483948 0.620215 0.856046 0.934106 1.161481 1.265136
70 1.344518 1.442558 1.686715 1.630984 1.513251 1.587449
70 1.390233 1.488285 1.827835 1.522340 1.587799 1.450216
70 1.447979 1.427168 1.185120 1.242278 1.343580 1.071194
70 1.050153 1.036121 1.054353 1.053392 1.101393 1.039247
70 0.998557 1.107331 1.056329 0.863705 1.146457 1.055357
70 0.887889 0.912447 0.975052 0.874577 0.952585 1.001263
70 0.868025 0.925273 1.073713 1.064490 1.129710 1.064891
70 1.074568 0.943830 1.042220 1.177077 1.279157 1.281756
70 1.245462 1.255154 1.322587 1.315116 1.453409 1.318219
70 1.145950 1.168147 1.461031 1.181436 1.379508 1.261622
70 1.252671 1.227261 1.317253 1.129232 1.077203 0.875953
70 0.914882 0.827670 0.724533 0.719864 0.602648 0.578557
70 0.610161 0.454258 0.481767 0.535059 0.492080 0.454843
70 0.426645 0.373423 0.372792 0.314964 0.305757 0.321292
70 0.353574 0.344868 0.424662 0.397256 0.461099 0.424631
70 0.516837 0.648889 0.776143 1.094710 1.382886 1.350053
70 1.431671 1.504762 1.357778 1.601145 1.660418 1.753823
70 1.722886 1.528356 1.525092 1.671283 1.479184 1.398370
70 1.565677 1.467753 1.301954 1.186203 1.000906 1.197967
70 1.021119 0.895473 1.162999 1.063344 0.908879 0.902229
70 1.073463 0.935335 1.103692 1.029482 0.994645 0.954389
70 0.913784 0.948059 0.849616 0.892891 0.954140 0.961403
70 0.854408 0.933199 1.020224 0.993132 1.201316 1.042454
70 1.085725 1.192616 1.177756 1.159033 1.127377 1.259166
70 1.362978 1.332225 1.219069 1.488527 1.155388 1.137981
70 1.399898 1.324046 1.245478 1.189006 1.541363 1.301380
70 1.324189 1.272122 1.241742 1.196482 1.143369 0.968233
70 0.879002 0.683359 0.666552 0.661500 0.650161 0.592121
70 0.524376 0.466157 0.388906 0.524515 0.436216 0.415950
70 0.404210 0.322982 0.320523 0.355215 0.312129 0.326375
70 0.304120 0.448259 0.354471 0.463182 0.334347 0.475249
70 0.564722 0.594367 0.844652 1.058632 1.121876 1.194954
70 1.312293 1.615781 1.589105 1.550925 1.753625 1.683088
70 1.503301 1.429105 1.624919 1.467464 1.511905 1.641695
70 1.465353 1.261770 1.316709 1.150449 1.346410 1.092602
70 1.118240 1.088420 1.045288 0.852542 0.884286 0.963151
70 1.029184 0.994906 0.923428 0.875262 0.923067 0.889812
70 0.936924 0.862550 0.924153 0.844607 0.881571 0.894353
70 0.885593 1.020731 0.934912 0.983799 1.045812 0.964596
70 1.071406 1.059532 1.111786 1.167039 1.123208 1.207862
70 1.390116 1.280401 1.419107 1.343166 1.387516 1.222228
70 1.310910 1.314482 1.238899 1.217762 1.145012 1.443621
70 1.171128 1.374180 1.155121 1.067789 1.133872 0.947793
70 0.940929 0.772802 0.738256 0.597309 0.639905 0.587101
70 0.499408 0.628201 0.521605 0.568266 0.516403 0.424911
70 0.386807 0.352155 0.281474 0.288706 0.305922 0.355987
70 0.326675 0.406863 0.359917 0.382616 0.387708 0.439925
70 0.518292 0.685325 0.867415 1.033941 1.237475 1.523422
70 1.406974 1.644739 1.368558 1.677699 1.564806 1.617683
70 1.733131 1.601861 1.670077 1.714201 1.546691 1.594431
70 1.371938 1.354367 1.245648 1.349271 1.232423 1.097576
70 1.113611 1.150783 1.028897 0.934194 1.010553 0.840978
70 1.065258 0.972086 0.962455 1.049829 0.849547 1.068460
70 0.865423 0.848597 0.953672 0.937071 1.076489 0.904424
70 0.935623 0.857070 0.973432 0.967390 1.014198 0.926123
70 1.246133 0.996142 0.890192 1.061172 1.142031 1.116438
70 1.368938 1.268901 1.302640 1.370758 1.336491 1.404957
70 1.184614 1.243583 1.372154 1.039253 1.156981 1.340977
70 1.221128 1.333478 1.277681 1.036996 1.115220 1.094159
70 0.910615 0.731856 0.760947 0.680370 0.626045 0.597406
70 0.409924 0.555105 0.572325 0.497040 0.464854 0.455466
70 0.410823 0.382876 0.329790 0.286973 0.275896 0.291922
70 0.309954 0.347582 0.456361 0.425664 0.382319 0.413874
70 0.504502 0.602964 0.821444 1.077304 1.196569 1.387985
70 1.570968 1.515033 1.636453 1.584050 1.624019 1.575334
70 1.532305 1.603008 1.630319 1.551358 1.559847 1.371790
70 1.273081 1.400473 1.371540 1.250327 1.321551 1.227070
70 1.335890 1.045204 0.949663 0.951081 0.954760 1.037371
70 0.830283 1.112110 0.980856 0.961727 0.871354 0.916012
70 0.900953 0.877031 0.905558 0.844963 0.835501 0.960324
70 0.952180 0.987450 1.084722 0.942658 0.979991 1.184558
70 0.969506 1.005776 1.222490 1.195008 1.210102 1.220494
70 1.261520 1.273594 1.440966 1.265310 1.289727 1.490001
70 1.302861 1.532777 1.291806 1.446173 1.127844 1.305151
70 1.108946 1.324382 1.083565 1.172963 1.055699 0.905708
70 0.783406 0.761481 0.809929 0.632256 0.644027 0.562464
70 0.576877 0.442771 0.483872 0.516741 0.451816 0.428445
70 0.386225 0.397362 0.337599 0.306802 0.315433 0.332187
70 0.354124 0.427081 0.398071 0.410376 0.381742 0.432348
70 0.563510 0.603589 0.742937 1.095085 1.185718 1.362032
70 1.461640 1.558553 1.708868 1.515214 1.495982 1.628344
70 1.394376 1.407369 1.792538 1.626331 1.498793 1.602241
70 1.291466 1.321039 1.364839 1.334096 1.241854 0.911424
70 1.014809 1.102811 1.002748 1.216381 1.074125 1.043931
70 0.913867 1.003153 1.019296 1.069615 1.020932 1.000856
70 0.833478 0.985727 0.784279 0.848774 0.931016 0.908937
70 0.868689 0.908224 0.876140 1.070334 1.158051 1.067661
70 1.064769 0.991134 1.231241 1.380110 1.027444 1.124909
70 1.189958 1.225125 1.323644 1.475717 1.412022 1.357949
70 1.224711 1.184058 1.219707 1.465012 1.293579 1.243214
70 1.251249 1.322414 1.073966 1.276747 1.093603 0.980921
70 0.931885 0.807812 0.691356 0.634368 0.558295 0.594714
70 0.516126 0.478890 0.506635 0.531331 0.456025 0.410441
70 0.412925 0.420283 0.291449 0.315073 0.304922 0.346737
70 0.375805 0.374369 0.346095 0.427349 0.375552 0.394860
70 0.545934 0.589967 0.908725 1.041461 1.230635 1.384876
70 1.274657 1.328656 1.627591 1.698057 1.638491 1.511054
70 1.602422 1.570661 1.440206 1.657797 1.292367 1.526518
70 1.452054 1.464731 1.195448 1.255463 1.400105 1.204591
70 1.108851 1.108088 1.039255 1.188129 1.078691 0.992470
70 1.023797 0.974543 1.096788 0.870735 0.831269 1.032341
70 1.055025 0.918852 0.889595 0.933423 0.853412 0.932572
70 0.947663 1.020843 0.875360 0.984999 1.123078 1.018134
70 1.012584 1.306997 1.150915 1.118351 1.037532 1.301248
70 1.328754 1.252383 1.185368 1.304372 1.219225 1.204754
70 1.289266 1.191158 1.328452 1.366976 1.212678 1.148176
70 1.428533 1.147256 1.136646 1.166472 1.131872 0.977729
70 0.933177 0.768472 0.655697 0.721336 0.719445 0.641706
70 0.545184 0.594619 0.514228 0.461926 0.474876 0.428171
70 0.368540 0.337749 0.350909 0.260563 0.314499 0.275897
70 0.289114 0.324138 0.462936 0.395143 0.405229 0.475723
70 0.537367 0.565498 0.873832 1.029155 1.167199 1.354277
70 1.617126 1.438979 1.651313 1.622995 1.393709 1.513548
70 1.624731 1.745128 1.684568 1.606672 1.402167 1.667927
70 1.432998 1.246147 1.280978 1.334652 1.193632 1.225163
70 1.197125 1.096307 0.961317 1.021894 1.003613 1.147960
70 0.872973 0.995144 0.953273 1.007399 0.767727 1.006916
70 0.900990 0.754967 0.856173 0.929996 0.785416 0.920206
70 0.864801 0.928877 1.002139 1.041709 1.012349 1.099795
70 1.171982 1.098394 1.278824 1.309836 1.158845 1.166771
70 1.090840 1.270058 1.262202 1.388392 1.148794 1.274040
70 1.400749 1.224560 1.223294 1.152676 1.572540 1.212205
70 1.137811 1.160795 1.125668 1.122209 1.151400 0.974374
70 0.833557 0.701758 0.712175 0.649661 0.673485 0.569222
70 0.534798 0.474974 0.487762 0.463417 0.444239 0.398321
70 0.417227 0.359754 0.324465 0.263803 0.311847 0.329618
70 0.324827 0.410149 0.356328 0.400743 0.393710 0.382199
70 0.507588 0.723008 0.821452 0.976643 1.242914 1.363082
70 1.470192 1.496025 1.782013 1.683550 1.558891 1.603376
70 1.505169 1.504098 1.479688 1.394261 1.593273 1.423910
70 1.471191 1.282602 1.293722 1.174520 1.261585 1.121262
70 1.035683 0.922754 1.054901 0.953649 0.998738 0.960003
70 1.080144 1.049787 1.035777 0.932739 0.989281 1.051283
70 0.840083 0.897882 0.765322 0.986013 0.871350 0.977564
70 0.814485 1.111909 0.971450 1.071458 1.064658 1.054309
70 1.248350 0.975341 1.174835 1.258092 1.197134 1.217886
70 1.244008 1.157040 1.303965 1.360546 1.313766 1.274573
70 1.249069 1.271490 1.433829 1.085965 1.304167 1.255497
70 1.417818 1.246081 1.342553 0.952051 1.119793 1.020561
70 1.000118 0.689690 0.702114 0.650879 0.576202 0.620036
70 0.524462 0.602971 0.542167 0.516796 0.478279 0.394716
70 0.386205 0.380575 0.347625 0.337696 0.288781 0.295426
70 0.372133 0.355430 0.427946 0.439976 0.417128 0.414996
70 0.501643 0.666547 0.817697 1.192574 1.104896 1.243230
70 1.352291 1.475701 1.321097 1.542433 1.542664 1.627509
70 1.653478 1.424170 1.671932 1.754497 1.475006 1.641470
70 1.431167 1.570877 1.416197 1.089550 1.194683 1.240489
70 1.102688 1.059134 1.136985 0.953530 1.001401 1.025187
70 0.976741 1.004374 1.062002 1.015070 0.892002 0.842802
70 0.843185 0.885759 0.870362 0.827772 0.856933 0.808097
70 0.976303 0.969004 0.899217 1.028993 1.164957 1.012594
70 1.215732 1.094391 1.165575 1.181832 1.334546 1.245093
70 1.143417 1.148486 1.140576 1.127943 1.311418 1.203057
70 1.291596 1.227317 1.222416 1.253426 1.373173 1.385139
70 1.307626 1.142338 1.261789 1.210136 1.103814 0.949994
70 0.951038 0.820796 0.533662 0.680838 0.508140 0.595038
70 0.532424 0.568076 0.496074 0.446199 0.452399 0.468007
70 0.400840 0.360572 0.349366 0.310870 0.299858 0.351928
70 0.391521 0.398693 0.390849 0.449520 0.440533 0.451787
70 0.451357 0.643496 0.768423 1.001310 1.223045 1.362481
70 1.411170 1.706469 1.382895 1.719130 1.385855 1.666854
70 1.486476 1.692127 1.570418 1.563797 1.377806 1.381513
70 1.432094 1.418528 1.604626 1.267563 1.286051 1.001507
70 0.982970 1.032058 0.933266 1.131152 0.967183 1.109813
70 1.122903 1.009437 1.040144 0.976694 0.994785 0.960206
70 0.891097 0.921450 1.003218 0.937378 0.923458 0.929151
70 0.868187 0.892224 1.025869 0.914172 0.987473 1.186650
70 1.268452 0.973731 1.296731 1.152826 1.198560 1.218354
70 1.367150 1.118031 1.347441 1.208148 1.366258 1.463770
70 1.299957 1.339478 1.345430 1.220185 1.457210 1.465315
70 1.341214 1.247847 1.155658 1.089443 1.227910 1.111146
70 0.895416 0.693591 0.549862 0.591340 0.593730 0.628359
70 0.510965 0.539502 0.552127 0.485203 0.452578 0.386258
70 0.361521 0.376014 0.324451 0.308722 0.298865 0.334113
70 0.326344 0.369843 0.460678 0.375760 0.393376 0.407073
70 0.517791 0.688382 0.784467 0.979208 1.173218 1.408943
70 1.380162 1.502169 1.296359 1.444706 1.613091 1.733523
70 1.637770 1.442061 1.384921 1.554839 1.301664 1.582171
70 1.415942 1.180991 1.199541 1.173198 1.119117 1.007639
70 1.023030 1.004107 0.973407 1.102163 1.008386 0.919909
70 0.976675 0.935208 0.975999 1.049814 0.972952 1.093495
70 0.927067 0.820940 0.938755 0.963408 0.978780 0.839435
70 0.933565 1.060136 0.865222 0.985625 0.931878 0.996007
70 1.010904 1.235860 1.125887 1.091667 1.100582 1.243444
70 1.257251 1.421010 1.352002 1.157237 1.240849 1.414495
70 1.235407 1.481021 1.188283 1.363287 1.210434 1.236741
70 1.381526 1.227963 1.278091 1.190353 1.145221 0.927270
70 0.884047 0.820887 0.662641 0.731860 0.562693 0.551481
70 0.495660 0.429645 0.571877 0.472413 0.441391 0.424570
70 0.445436 0.335805 0.347678 0.295360 0.285680 0.331649
70 0.375730 0.364421 0.375397 0.363899 0.437969 0.407556
70 0.426035 0.708112 0.727494 1.077454 1.217609 1.382783
70 1.398355 1.594047 1.386524 1.700660 1.830486 1.731733
70 1.341499 1.456551 1.536200 1.593145 1.487202 1.400331
70 1.475831 1.481475 1.275841 1.317982 0.946780 1.058197
70 1.071729 1.020750 1.059618 1.092927 1.040534 0.949571
70 0.881287 1.050818 0.852946 1.032353 0.939326 0.837498
70 0.920683 0.885467 0.879062 0.880819 0.930206 0.988005
70 0.982256 1.050829 0.996469 1.159569 1.100028 1.029491
70 1.003737 1.141959 1.027486 1.081346 1.222952 1.169717
70 1.164416 1.279511 1.307559 1.285418 1.267131 1.392039
70 1.335612 1.277303 1.559578 1.323785 1.417729 1.231441
70 1.131452 1.161995 1.174271 1.101361 1.195555 0.988611
70 0.933226 0.790988 0.686274 0.649425 0.682274 0.530329
70 0.572145 0.475996 0.481615 0.480402 0.469748 0.482618
70 0.398397 0.339342 0.346899 0.296818 0.305728 0.314307
70 0.294065 0.395500 0.418668 0.431204 0.460408 0.386371
70 0.520660 0.657171 0.789639 1.046431 1.247966 1.219872
70 1.495829 1.435012 1.516562 1.393640 1.566093 1.591011
70 1.670382 1.581150 1.367199 1.639173 1.485770 1.514812
70 1.517601 1.509497 1.503968 1.238163 1.222596 1.045306
70 1.193421 0.961575 0.883077 1.078097 0.958264 1.061481
70 1.036301 0.874812 0.782426 0.895027 0.954963 0.834101
70 0.853001 0.782300 0.893625 0.893237 0.865340 1.022789
70 1.057917 1.016076 0.856018 0.935913 1.086228 1.022184
70 1.057136 1.204259 1.194310 1.295946 1.158796 1.364777
70 1.202588 1.436963 1.311007 1.216968 1.136088 1.271530
70 1.273352 1.389783 1.291221 1.258475 1.412012 1.266113
70 1.211375 1.297601 1.152976 1.207374 1.028505 0.980392
70 0.910957 0.770178 0.710167 0.689696 0.619709 0.586784
70 0.511665 0.553939 0.526782 0.518855 0.431193 0.425477
70 0.420273 0.346177 0.323786 0.352826 0.346842 0.348727
70 0.374347 0.349057 0.416402 0.389912 0.368361 0.409821
70 0.504627 0.608471 0.781029 1.078475 1.213834 1.376895
70 1.480063 1.465031 1.424567 1.664605 1.561708 1.357179
70 1.549751 1.442890 1.646802 1.597400 1.559627 1.380291
70 1.491186 1.389914 1.257375 1.200194 1.278098 1.100653
70 1.126722 1.150136 1.189796 1.145506 1.072066 0.878924
70 0.948220 0.961884 1.132252 0.926209 0.983168 0.931919
70 0.832671 0.912725 0.909736 0.797705 0.988047 0.766407
70 0.900075 1.047705 0.904539 1.055410 0.942867 1.068296
70 0.896388 1.047734 1.005786 1.134971 1.160138 1.163247
70 1.338698 1.192016 1.365976 1.477288 1.321131 1.213554
70 1.170069 1.226700 1.376184 1.319797 1.397427 1.368758
70 1.284223 1.287565 1.378104 1.276819 1.053923 1.077229
70 0.942181 0.866118 0.749130 0.596999 0.522255 0.590927
70 0.621120 0.486381 0.492476 0.440470 0.500932 0.351868
70 0.327563 0.374819 0.327578 0.293994 0.292774 0.330886
70 0.336675 0.346695 0.370324 0.429975 0.385548 0.379872
70 0.504087 0.662043 0.903895 1.031891 1.136668 1.402906
70 1.552271 1.543930 1.594291 1.658052 1.618637 1.649712
70 1.469195 1.435526 1.455309 1.612192 1.531056 1.579175
70 1.387701 1.231263 1.419034 1.243490 1.315388 1.198722
70 1.292598 1.043592 1.106513 1.083029 0.955590 0.985526
70 0.886186 0.881348 1.010126 1.043339 1.002383 0.949606
70 0.962137 0.843889 0.862421 0.939116 0.931185 0.904499
70 1.044546 0.871638 0.958506 1.003366 1.120683 1.076511
70 0.988989 1.169659 1.247245 1.242018 1.259439 1.045150
70 1.167781 1.332532 1.294292 1.361575 1.174227 1.296544
70 1.155463 1.097281 1.333573 1.391441 1.325544 1.285900
70 1.111227 1.340426 1.195772 1.326724 1.161504 0.838076
70 0.954364 0.705239 0.667736 0.634469 0.595485 0.583014
70 0.494957 0.470824 0.524024 0.479755 0.464181 0.355715
70 0.394332 0.337970 0.305465 0.328274 0.273704 0.289519
70 0.338981 0.393736 0.371712 0.441081 0.449120 0.397091
70 0.490197 0.596695 0.706870 1.038797 1.270425 1.569197
70 1.361619 1.714310 1.771821 1.649959 1.706147 1.730342
70 1.852685 1.641471 1.552128 1.427155 1.536638 1.577301
70 1.436308 1.270698 1.309264 1.232492 1.218170 0.991906
70 1.148469 1.112869 1.068871 1.010635 0.855525 0.997770
70 1.088697 0.936771 0.840858 0.860182 0.977663 0.952036
70 0.963813 0.881756 0.775823 0.828726 0.958956 0.930309
70 0.993836 1.005929 0.983603 1.012351 1.208254 1.112011
70 1.088684 1.164394 1.167877 0.970273 1.262408 1.408618
70 1.179822 1.432297 1.273286 1.337623 1.418477 1.227904
70 1.429219 1.174217 1.211538 1.241675 1.368849 1.254144
70 1.115498 1.219084 1.124715 1.214026 1.050424 1.003849
70 1.027012

[CURVES]
;ID         X-Value      Y-Value     

[CONTROLS]

[RULES]

[ENERGY]
GLOBAL EFFICIENCY      75.0000
GLOBAL PRICE           0.0000
DEMAND CHARGE          0.0000

[EMITTERS]
;ID        Flow coefficient

[QUALITY]

[SOURCES]
;Node      Type       Quality    Pattern   

[REACTIONS]
;Type           Pipe/Tank               Coefficient

 ORDER BULK 1
 ORDER TANK 1
 ORDER WALL 1
 GLOBAL BULK 0.0000    
 GLOBAL WALL 0.0000    
 LIMITING POTENTIAL 0.0000    
 ROUGHNESS CORRELATION 0.0000    

[MIXING]
;Tank ID             Model Fraction

[TIMES]
DURATION             672:00:00
HYDRAULIC TIMESTEP   00:15:00
QUALITY TIMESTEP     00:05:00
PATTERN TIMESTEP     00:15:00
PATTERN START        00:00:00
REPORT TIMESTEP      00:15:00
REPORT START         00:00:00
START CLOCKTIME      00:00:00 AM
RULE TIMESTEP        00:06:00
STATISTIC            NONE      

[REPORT]
 Status             	No
 Summary            	No
 Page               	0
 Nodes					ALL
 Links					ALL
 Flow					Yes
 Headloss				No
 Velocity 				No
 Demand 				Yes
 Head 					Yes
 Pressure 				Yes
 Quality 				No
 State 					Yes

[OPTIONS]
UNITS                CMH                 
HEADLOSS             H-W                 
SPECIFIC GRAVITY     1
VISCOSITY            1
TRIALS               40
ACCURACY             0.001
CHECKFREQ            2
MAXCHECK             10
UNBALANCED           CONTINUE 10
DEMAND MULTIPLIER    1
DEMAND MODEL         PDA
MINIMUM PRESSURE     0.00
REQUIRED PRESSURE    0.10
PRESSURE EXPONENT    0.5
EMITTER EXPONENT     0.5
QUALITY              NONE                