; Filename: D:/OneDrive/IHE_HI/015. Thesis/Github_repositories\Msc-Thesis/INP_FILES/Twoloops_Base_WNTR.inp
; WNTR: 0.4.2
; Created: 2023-03-07 09:41:08
[TITLE]

[JUNCTIONS]
;ID                      Elevation       Demand Pattern                 
 1                                160             100 77                         ;
 2                                150             100 77                         ;
 3                                150             270 77                         ;
 4                                155             120 77                         ;
 5                                160             200 77                         ;
 6                                165             330 77                         ;

[RESERVOIRS]
;ID                                   Head                  Pattern
 7                                210                            ;

[TANKS]
;ID                              Elevation           Init Level            Min Level            Max Level             Diameter           Min Volume Volume Curve         Overflow            

[PIPES]
;ID                   Node1                Node2                              Length             Diameter            Roughness           Minor Loss               Status
 1                    2                    1                               1000             200             130               0                 Open   ;
 2                    1                    3                               1000             150             130               0                 Open   ;
 3                    2                    4                               1000             450             130               0                 Open   ;
 4                    4                    3                               1000             150             130               0                 Open   ;
 5                    5                    3                               1000             150             130               0                 Open   ;
 6                    4                    6                               1000             400             130               0                 Open   ;
 7                    6                    5                               1000             250             130               0                 Open   ;
 8                    7                    2                               1000             450             130               0                 Open   ;

[PUMPS]
;ID                   Node1                Node2                Properties          

[VALVES]
;ID                   Node1                Node2                            Diameter Type              Setting           Minor Loss

[TAGS]
;type      name       tag       

[DEMANDS]
;ID        Demand     Pattern   

[STATUS]
;ID        Setting   

[PATTERNS]
;ID        Multipliers

77 0.995259 0.614406 0.529362 0.453781 0.333616 0.376545
77 0.528503 1.189102 1.590091 1.639417 1.512964 1.413433
77 1.150228 1.007301 1.026632 0.918018 0.980680 0.987691
77 1.120662 1.138505 1.100867 1.350982 1.367426 1.146564
77 1.022567 0.547643 0.501373 0.395508 0.327590 0.435265
77 0.504648 1.227228 1.514773 1.409844 1.468688 1.312195
77 1.181199 1.072143 0.976760 0.883676 0.843378 0.914799
77 0.987386 1.340456 1.260247 1.265830 1.202282 1.255979
77 0.812850 0.592341 0.473136 0.409286 0.290806 0.371665
77 0.499155 1.230840 1.606386 1.629037 1.442911 1.271706
77 1.055618 0.978427 0.951211 0.806781 0.909581 0.975893
77 0.992407 1.233320 1.229231 1.304052 1.356869 1.209287
77 0.961528 0.555546 0.512070 0.383565 0.284326 0.386108
77 0.490653 1.204044 1.488146 1.686479 1.541910 1.180173
77 1.198225 1.113753 1.070727 0.890284 0.842179 1.063267
77 1.073390 1.288016 1.316245 1.376178 1.327797 1.250873
77 0.900567 0.664291 0.503807 0.409648 0.333897 0.367654
77 0.461885 1.269797 1.487380 1.786588 1.462774 1.241699
77 1.226914 1.088831 1.112054 0.948926 0.853494 1.114604
77 1.082312 1.257777 1.373886 1.287909 1.347898 1.266399
77 0.920327 0.560422 0.508947 0.431833 0.287498 0.396409
77 0.486945 1.333147 1.664540 1.639116 1.430708 1.342061
77 1.055494 1.001910 0.961849 0.936527 0.931136 0.987502
77 1.126136 1.121300 1.183682 1.334273 1.313001 1.245722
77 1.028690 0.634001 0.472615 0.426808 0.276314 0.388922
77 0.497953 1.323361 1.528504 1.520662 1.491139 1.248249
77 1.174358 0.935204 0.931152 0.876358 0.873106 1.115772
77 1.162662 1.206304 1.204416 1.365860 1.221983 1.088776
77 0.964154 0.611410 0.527626 0.407649 0.315423 0.384375
77 0.468973 1.249075 1.522873 1.533803 1.459002 1.301363
77 1.076636 0.917503 0.961383 0.779936 0.933762 0.903877
77 1.027111 1.203756 1.242314 1.420355 1.199157 1.219228
77 0.897879 0.557949 0.515698 0.395883 0.313892 0.419764
77 0.564897 1.296230 1.564559 1.577020 1.598969 1.351111
77 1.142249 0.902983 0.998540 0.860146 0.915116 0.994111
77 1.160072 1.222840 1.361334 1.263619 1.226333 1.170476
77 0.899081 0.613649 0.567779 0.398986 0.282793 0.391696
77 0.486092 1.234667 1.452083 1.606073 1.514086 1.318110
77 1.060577 0.985725 0.914556 0.873361 0.870685 1.024963
77 1.023692 1.256246 1.416570 1.138541 1.333248 1.248737
77 0.865578 0.585698 0.496014 0.392853 0.294438 0.359776
77 0.534570 1.277733 1.521917 1.459223 1.546896 1.255089
77 1.109369 0.980840 1.041492 0.937516 0.860818 0.916998
77 0.995526 1.243947 1.207269 1.260468 1.253488 1.196215
77 0.795441 0.606796 0.515717 0.402122 0.294404 0.402338
77 0.511971 1.000373 1.787768 1.637449 1.441283 1.269506
77 1.132587 0.993034 0.878159 1.011483 0.894031 1.061210
77 1.054325 1.310619 1.322335 1.347490 1.218470 1.287202
77 0.937250 0.646866 0.481157 0.388455 0.341471 0.374560
77 0.495922 1.281856 1.609382 1.655964 1.464050 1.328864
77 1.013769 1.099488 0.992910 0.863270 0.935985 0.972357
77 1.011939 1.103036 1.354114 1.287553 1.289571 1.277598
77 0.839151 0.573696 0.488454 0.402264 0.299241 0.393115
77 0.498151 1.192274 1.530918 1.521953 1.524706 1.230509
77 1.023615 0.981262 0.990540 1.021863 0.861946 1.056596
77 1.149314 1.114396 1.360314 1.207657 1.092585 1.243655
77 0.805182 0.616234 0.479480 0.439829 0.319233 0.389119
77 0.479365 1.112586 1.557671 1.573086 1.467178 1.312223
77 1.138182 1.020979 0.954151 0.822359 0.973685 0.958633
77 1.056949 1.162474 1.156241 1.262718 1.262587 1.244666
77 0.937717 0.600136 0.527955 0.408159 0.299718 0.403862
77 0.494280 1.171571 1.574298 1.491711 1.525240 1.222536
77 1.155548 0.985032 1.002970 0.926667 0.934739 0.905763
77 1.086344 1.263373 1.167548 1.330208 1.124066 1.126380
77 0.902086 0.540358 0.470435 0.364676 0.329666 0.403941
77 0.517019 1.183967 1.566071 1.444818 1.473735 1.240604
77 1.156623 1.068466 1.087995 0.946038 0.867673 0.933046
77 1.150600 1.225653 1.162054 1.327728 1.363533 1.204243
77 0.890007 0.570925 0.456604 0.419207 0.294436 0.394397
77 0.551982 1.249284 1.635599 1.613638 1.636800 1.434128
77 1.161347 1.034933 0.874324 0.906681 0.892974 1.005637
77 1.162241 1.002743 1.255594 1.321053 1.263586 1.097983
77 0.946924 0.609967 0.470867 0.407556 0.314789 0.400127
77 0.524017 1.205635 1.562058 1.488696 1.492266 1.315155
77 1.157805 0.993094 1.027445 0.847911 0.857738 0.993377
77 1.030395 1.259058 1.336124 1.321769 1.326435 1.345515
77 0.874681 0.520748 0.505979 0.398786 0.290685 0.376508
77 0.486824 1.213056 1.551730 1.831596 1.413555 1.238137
77 0.948951 1.015089 0.879016 0.870869 0.885114 0.957416
77 1.214766 1.271596 1.402893 1.231171 1.388030 1.235712
77 0.941656 0.637060 0.472737 0.389816 0.315527 0.336265
77 0.545400 1.239826 1.595612 1.621169 1.407306 1.272704
77 1.172619 1.077881 1.161773 0.896008 0.864438 0.969146
77 1.032809 1.194394 1.329853 1.297329 1.385515 1.183136
77 0.881238 0.579074 0.451021 0.362374 0.278775 0.431234
77 0.526858 1.298997 1.472108 1.411012 1.440595 1.313714
77 1.132914 1.062878 1.017057 0.994104 0.887979 0.945215
77 0.989040 1.135994 1.318885 1.230680 1.373066 1.301688
77 0.772042 0.631106 0.432812 0.409636 0.322048 0.401557
77 0.461609 1.157849 1.574882 1.582505 1.481739 1.291429
77 1.114090 0.927486 0.985479 0.981986 0.879229 0.973370
77 1.171161 1.015739 1.392148 1.250712 1.312786 1.206935
77 0.950893 0.590367 0.479659 0.431148 0.257445 0.400488
77 0.459562 1.145167 1.793081 1.595719 1.517556 1.161038
77 1.051883 1.011793 1.021285 0.933312 0.900466 1.031620
77 1.129950 1.068259 1.302886 1.359896 1.346011 1.173802
77 0.856496 0.559741 0.496068 0.427194 0.264868 0.384163
77 0.465806 1.256517 1.546786 1.554819 1.480475 1.334741
77 1.074102 0.817231 1.032599 0.923708 0.888145 0.934958
77 1.123217 1.227305 1.263337 1.283095 1.227448 1.187142
77 0.816277 0.615023 0.471669 0.405714 0.274693 0.385839
77 0.496685 1.080430 1.611054 1.563602 1.343188 1.198347
77 1.139938 1.053733 0.992085 0.921857 0.912088 1.019777
77 1.184875 1.091496 1.352764 1.270203 1.282508 1.178238
77 0.879742 0.555857 0.505500 0.440103 0.298990 0.399967
77 0.479381 1.191542 1.644752 1.564457 1.459158 1.331455
77 1.039412 1.015150 1.049219 0.973437 0.895119 1.082056
77 1.168271 1.128273 1.205001 1.276213 1.380257 1.194795
77 0.867564 0.655881 0.508607 0.344306 0.305709 0.412481
77 0.506768 1.232379 1.593542 1.473434 1.466637 1.226242
77 1.038439 0.924216 1.027149 0.905286 0.875799 0.961040
77 1.098454 1.277702 1.143671 1.329396 1.257434 1.064310
77 0.995259

[CURVES]
;ID         X-Value      Y-Value     

[CONTROLS]

[RULES]

[ENERGY]
GLOBAL EFFICIENCY      75.0000
GLOBAL PRICE           0.0000
DEMAND CHARGE          0.0000

[EMITTERS]
;ID        Flow coefficient

[QUALITY]

[SOURCES]
;Node      Type       Quality    Pattern   

[REACTIONS]
;Type           Pipe/Tank               Coefficient

 ORDER BULK 1
 ORDER TANK 1
 ORDER WALL 1
 GLOBAL BULK 0.0000    
 GLOBAL WALL 0.0000    
 LIMITING POTENTIAL 0.0000    
 ROUGHNESS CORRELATION 0.0000    

[MIXING]
;Tank ID             Model Fraction

[TIMES]
DURATION             672:00:00
HYDRAULIC TIMESTEP   01:00:00
QUALITY TIMESTEP     00:05:00
PATTERN TIMESTEP     01:00:00
PATTERN START        00:00:00
REPORT TIMESTEP      01:00:00
REPORT START         00:00:00
START CLOCKTIME      00:00:00 AM
RULE TIMESTEP        00:06:00
STATISTIC            NONE      

[REPORT]
 Status             	No
 Summary            	No
 Page               	0
 Nodes					ALL
 Links					ALL
 Flow					Yes
 Headloss				No
 Velocity 				No
 Demand 				Yes
 Head 					Yes
 Pressure 				Yes
 Quality 				No
 State 					Yes

[OPTIONS]
UNITS                CMH                 
HEADLOSS             H-W                 
SPECIFIC GRAVITY     1
VISCOSITY            1
TRIALS               40
ACCURACY             0.001
CHECKFREQ            2
MAXCHECK             10
UNBALANCED           CONTINUE 10
DEMAND MULTIPLIER    1
DEMAND MODEL         PDA
MINIMUM PRESSURE     0.00
REQUIRED PRESSURE    0.10
PRESSURE EXPONENT    0.5
EMITTER EXPONENT     0.5
QUALITY              NONE                
DIFFUSIVITY          1
TOLERANCE            0.01

[COORDINATES]
;Node      X-Coord    Y-Coord   
1                4000.000000000       7000.000000000
2                5000.000000000       7000.000000000
3                4000.000000000       6000.000000000
4                5000.000000000       6000.000000000
5                4000.000000000       5000.000000000
6                5000.000000000       5000.000000000
7                6000.000000000       7000.000000000

[VERTICES]
;Link      X-Coord    Y-Coord   

[LABELS]

[BACKDROP]
DIMENSIONS    2900.000    4900.000    5100.000    7100.000
UNITS    METERS
OFFSET    0.00    0.00

[END]
