; Filename: D:/OneDrive/IHE_HI/015. Thesis/Github_repositories\Msc-Thesis/INP_FILES/Twoloops_Base_WNTR.inp
; WNTR: 0.4.2
; Created: 2023-03-07 09:38:48
[TITLE]

[JUNCTIONS]
;ID                      Elevation       Demand Pattern                 
 1                                160             100 58                         ;
 2                                150             100 58                         ;
 3                                150             270 58                         ;
 4                                155             120 58                         ;
 5                                160             200 58                         ;
 6                                165             330 58                         ;

[RESERVOIRS]
;ID                                   Head                  Pattern
 7                                210                            ;

[TANKS]
;ID                              Elevation           Init Level            Min Level            Max Level             Diameter           Min Volume Volume Curve         Overflow            

[PIPES]
;ID                   Node1                Node2                              Length             Diameter            Roughness           Minor Loss               Status
 1                    2                    1                               1000             200             130               0                 Open   ;
 2                    1                    3                               1000             150             130               0                 Open   ;
 3                    2                    4                               1000             450             130               0                 Open   ;
 4                    4                    3                               1000             150             130               0                 Open   ;
 5                    5                    3                               1000             150             130               0                 Open   ;
 6                    4                    6                               1000             400             130               0                 Open   ;
 7                    6                    5                               1000             250             130               0                 Open   ;
 8                    7                    2                               1000             450             130               0                 Open   ;

[PUMPS]
;ID                   Node1                Node2                Properties          

[VALVES]
;ID                   Node1                Node2                            Diameter Type              Setting           Minor Loss

[TAGS]
;type      name       tag       

[DEMANDS]
;ID        Demand     Pattern   

[STATUS]
;ID        Setting   

[PATTERNS]
;ID        Multipliers

58 1.027012 0.733691 0.646979 0.635708 0.574702 0.422004
58 0.430403 0.325758 0.297523 0.359640 0.404609 0.449263
58 0.530442 0.824984 1.242611 1.506092 1.791242 1.601018
58 1.640073 1.453065 1.193641 1.482403 1.389901 1.122078
58 1.299738 0.912050 1.003661 0.988511 1.122622 1.065811
58 0.911156 0.908316 0.836079 0.795019 0.972167 1.065123
58 1.208266 1.257786 1.162817 1.227940 1.190950 1.158164
58 1.122548 1.506056 1.246996 1.225412 1.079732 1.147263
58 0.783799 0.698832 0.557018 0.555754 0.479568 0.414556
58 0.399098 0.341050 0.301596 0.356628 0.379702 0.390763
58 0.473102 0.793530 1.121938 1.264346 1.622711 1.575414
58 1.391335 1.617373 1.391124 1.414595 1.375825 1.205214
58 1.200267 0.930178 1.032187 0.948560 0.930336 0.909540
58 0.877568 0.885605 0.816109 1.012805 1.037253 0.922679
58 1.230966 1.321445 1.313163 1.240259 1.188642 1.416815
58 1.258070 1.430150 1.321661 1.369138 1.234211 1.141135
58 0.900756 0.812502 0.606092 0.556404 0.575326 0.408435
58 0.359344 0.355323 0.271845 0.402344 0.386764 0.378377
58 0.576918 0.913801 1.379286 1.573262 1.489763 1.876460
58 1.565696 1.659754 1.613670 1.391271 1.363864 1.280913
58 1.133125 0.941360 1.023859 1.110026 0.944435 0.942288
58 0.868669 1.012074 0.948405 0.975518 0.938407 1.097347
58 1.040659 1.150337 1.138959 1.326469 1.359965 1.284822
58 1.341185 1.188828 1.144909 1.314557 1.216001 1.134953
58 1.071586 0.764649 0.556185 0.587240 0.447364 0.440890
58 0.397816 0.374949 0.282126 0.325180 0.396850 0.381081
58 0.545065 0.746444 1.089843 1.415554 1.536252 1.878995
58 1.721526 1.570555 1.352948 1.503900 1.195978 1.045484
58 1.204547 1.058309 1.073669 1.029128 1.068546 0.904034
58 0.825535 0.929717 0.842155 0.892608 0.963557 1.053436
58 1.068849 1.021204 1.138213 1.034543 1.365024 1.139136
58 1.185144 1.308183 1.223085 1.426678 1.075886 1.103157
58 0.897172 0.644497 0.625117 0.531670 0.530872 0.487955
58 0.469224 0.365008 0.291140 0.341534 0.435189 0.423538
58 0.525605 0.711343 1.197665 1.380322 1.635830 1.614953
58 1.716503 1.599211 1.594359 1.356176 1.201778 1.153773
58 1.098502 1.063446 1.180745 1.000147 0.923524 0.927307
58 0.866621 0.915603 0.789063 0.949504 1.012521 1.071505
58 1.047436 1.125576 1.063290 1.208710 1.243542 1.350084
58 1.179757 1.384163 1.455426 1.059621 1.240921 1.138572
58 0.854105 0.688337 0.593622 0.526226 0.487639 0.396414
58 0.436875 0.358231 0.280479 0.307353 0.416674 0.383904
58 0.505678 0.796159 1.266388 1.548466 1.507124 1.447594
58 1.397384 1.635789 1.357337 1.351623 1.237983 1.187888
58 0.929607 1.047727 1.041911 1.010638 0.975129 0.961136
58 0.928731 0.686088 1.040826 0.974205 0.947807 1.019064
58 1.143449 1.136758 1.005054 1.466204 1.288504 1.413231
58 1.228027 1.462868 1.329780 1.331772 1.099656 1.184733
58 0.949667 0.784974 0.569852 0.518324 0.592157 0.418974
58 0.395650 0.359742 0.302345 0.364441 0.387218 0.414356
58 0.447739 0.925411 1.188656 1.387112 1.685297 1.567739
58 1.429215 1.391601 1.583253 1.390757 1.286095 1.295757
58 1.000839 0.971806 0.969210 1.011114 0.996626 0.931816
58 0.895563 0.874075 0.848188 0.883279 1.021961 0.976988
58 0.998153 1.118749 1.184864 1.485556 1.226711 1.405192
58 1.377708 1.178835 1.380418 1.149643 0.944719 1.132472
58 1.027012

[CURVES]
;ID         X-Value      Y-Value     

[CONTROLS]

[RULES]

[ENERGY]
GLOBAL EFFICIENCY      75.0000
GLOBAL PRICE           0.0000
DEMAND CHARGE          0.0000

[EMITTERS]
;ID        Flow coefficient

[QUALITY]

[SOURCES]
;Node      Type       Quality    Pattern   

[REACTIONS]
;Type           Pipe/Tank               Coefficient

 ORDER BULK 1
 ORDER TANK 1
 ORDER WALL 1
 GLOBAL BULK 0.0000    
 GLOBAL WALL 0.0000    
 LIMITING POTENTIAL 0.0000    
 ROUGHNESS CORRELATION 0.0000    

[MIXING]
;Tank ID             Model Fraction

[TIMES]
DURATION             168:00:00
HYDRAULIC TIMESTEP   00:30:00
QUALITY TIMESTEP     00:05:00
PATTERN TIMESTEP     00:30:00
PATTERN START        00:00:00
REPORT TIMESTEP      00:30:00
REPORT START         00:00:00
START CLOCKTIME      00:00:00 AM
RULE TIMESTEP        00:06:00
STATISTIC            NONE      

[REPORT]
 Status             	No
 Summary            	No
 Page               	0
 Nodes					ALL
 Links					ALL
 Flow					Yes
 Headloss				No
 Velocity 				No
 Demand 				Yes
 Head 					Yes
 Pressure 				Yes
 Quality 				No
 State 					Yes

[OPTIONS]
UNITS                CMH                 
HEADLOSS             H-W                 
SPECIFIC GRAVITY     1
VISCOSITY            1
TRIALS               40
ACCURACY             0.001
CHECKFREQ            2
MAXCHECK             10
UNBALANCED           CONTINUE 10
DEMAND MULTIPLIER    1
DEMAND MODEL         PDA
MINIMUM PRESSURE     0.00
REQUIRED PRESSURE    0.10
PRESSURE EXPONENT    0.5
EMITTER EXPONENT     0.5
QUALITY              NONE                
DIFFUSIVITY          1
TOLERANCE            0.01

[COORDINATES]
;Node      X-Coord    Y-Coord   
1                4000.000000000       7000.000000000
2                5000.000000000       7000.000000000
3                4000.000000000       6000.000000000
4                5000.000000000       6000.000000000
5                4000.000000000       5000.000000000
6                5000.000000000       5000.000000000
7                6000.000000000       7000.000000000

[VERTICES]
;Link      X-Coord    Y-Coord   

[LABELS]

[BACKDROP]
DIMENSIONS    2900.000    4900.000    5100.000    7100.000
UNITS    METERS
OFFSET    0.00    0.00

[END]
