; Filename: D:/OneDrive/IHE_HI/015. Thesis/Github_repositories\Msc-Thesis/INP_FILES/Twoloops_Base_WNTR.inp
; WNTR: 0.4.2
; Created: 2023-03-07 09:37:48
[TITLE]

[JUNCTIONS]
;ID                      Elevation       Demand Pattern                 
 1                                160             100 21                         ;
 2                                150             100 21                         ;
 3                                150             270 21                         ;
 4                                155             120 21                         ;
 5                                160             200 21                         ;
 6                                165             330 21                         ;

[RESERVOIRS]
;ID                                   Head                  Pattern
 7                                210                            ;

[TANKS]
;ID                              Elevation           Init Level            Min Level            Max Level             Diameter           Min Volume Volume Curve         Overflow            

[PIPES]
;ID                   Node1                Node2                              Length             Diameter            Roughness           Minor Loss               Status
 1                    2                    1                               1000             200             130               0                 Open   ;
 2                    1                    3                               1000             150             130               0                 Open   ;
 3                    2                    4                               1000             450             130               0                 Open   ;
 4                    4                    3                               1000             150             130               0                 Open   ;
 5                    5                    3                               1000             150             130               0                 Open   ;
 6                    4                    6                               1000             400             130               0                 Open   ;
 7                    6                    5                               1000             250             130               0                 Open   ;
 8                    7                    2                               1000             450             130               0                 Open   ;

[PUMPS]
;ID                   Node1                Node2                Properties          

[VALVES]
;ID                   Node1                Node2                            Diameter Type              Setting           Minor Loss

[TAGS]
;type      name       tag       

[DEMANDS]
;ID        Demand     Pattern   

[STATUS]
;ID        Setting   

[PATTERNS]
;ID        Multipliers

21 0.995259 0.813002 0.752681 0.734510 0.667232 0.531910
21 0.569798 0.513850 0.496903 0.492096 0.461752 0.469074
21 0.418265 0.366558 0.338533 0.311846 0.326893 0.313352
21 0.354743 0.360570 0.338728 0.417189 0.423315 0.408193
21 0.568093 0.580807 0.819274 1.002821 1.310360 1.470814
21 1.480572 1.583891 1.514773 1.431212 1.593755 1.632523
21 1.718108 1.695097 1.523386 1.505597 1.405630 1.333643
21 1.264519 1.513885 1.260247 1.212626 1.103237 1.197364
21 0.993483 1.048710 0.976684 1.034408 0.969352 0.928525
21 1.001842 1.031848 1.003991 0.998903 0.917407 0.904339
21 0.863687 0.866564 0.838629 0.794942 0.909581 0.897791
21 0.852318 0.999108 0.945562 1.029842 1.097984 1.084635
21 1.175200 1.040225 1.175115 1.124478 1.137303 1.186807
21 1.234849 1.287373 1.209118 1.377578 1.343101 1.182855
21 1.416084 1.448491 1.394886 1.289498 1.216481 1.370873
21 1.239198 1.331566 1.214996 1.214134 1.103177 1.040515
21 0.900567 0.879013 0.716345 0.663074 0.667793 0.519350
21 0.497976 0.548721 0.464806 0.536271 0.446434 0.412080
21 0.446151 0.396227 0.366700 0.322345 0.284498 0.353616
21 0.342603 0.398344 0.422734 0.397712 0.417270 0.450856
21 0.511293 0.594360 0.831651 1.094925 1.149991 1.339515
21 1.428633 1.720593 1.664540 1.663959 1.552541 1.669680
21 1.535264 1.584056 1.500130 1.595646 1.551893 1.439634
21 1.442213 1.266375 1.183682 1.278192 1.204835 1.187586
21 1.257288 1.122466 0.975609 1.078694 0.921046 0.971639
21 0.999430 1.109411 0.955315 0.932448 0.948071 0.887658
21 0.960838 0.828283 0.820944 0.863498 0.873106 1.026475
21 0.998539 0.977222 0.926474 1.078654 0.988834 0.976547
21 1.178410 1.144826 1.210812 1.195087 1.261692 1.181483
21 1.180285 1.335520 1.237334 1.252867 1.270883 1.304321
21 1.272388 1.193257 1.252438 1.129669 1.348768 1.165371
21 1.185769 1.244456 1.146751 1.253110 0.996299 1.014191
21 0.995259

[CURVES]
;ID         X-Value      Y-Value     

[CONTROLS]

[RULES]

[ENERGY]
GLOBAL EFFICIENCY      75.0000
GLOBAL PRICE           0.0000
DEMAND CHARGE          0.0000

[EMITTERS]
;ID        Flow coefficient

[QUALITY]

[SOURCES]
;Node      Type       Quality    Pattern   

[REACTIONS]
;Type           Pipe/Tank               Coefficient

 ORDER BULK 1
 ORDER TANK 1
 ORDER WALL 1
 GLOBAL BULK 0.0000    
 GLOBAL WALL 0.0000    
 LIMITING POTENTIAL 0.0000    
 ROUGHNESS CORRELATION 0.0000    

[MIXING]
;Tank ID             Model Fraction

[TIMES]
DURATION             48:00:00
HYDRAULIC TIMESTEP   00:15:00
QUALITY TIMESTEP     00:05:00
PATTERN TIMESTEP     00:15:00
PATTERN START        00:00:00
REPORT TIMESTEP      00:15:00
REPORT START         00:00:00
START CLOCKTIME      00:00:00 AM
RULE TIMESTEP        00:06:00
STATISTIC            NONE      

[REPORT]
 Status             	No
 Summary            	No
 Page               	0
 Nodes					ALL
 Links					ALL
 Flow					Yes
 Headloss				No
 Velocity 				No
 Demand 				Yes
 Head 					Yes
 Pressure 				Yes
 Quality 				No
 State 					Yes

[OPTIONS]
UNITS                CMH                 
HEADLOSS             H-W                 
SPECIFIC GRAVITY     1
VISCOSITY            1
TRIALS               40
ACCURACY             0.001
CHECKFREQ            2
MAXCHECK             10
UNBALANCED           CONTINUE 10
DEMAND MULTIPLIER    1
DEMAND MODEL         PDA
MINIMUM PRESSURE     0.00
REQUIRED PRESSURE    0.10
PRESSURE EXPONENT    0.5
EMITTER EXPONENT     0.5
QUALITY              NONE                
DIFFUSIVITY          1
TOLERANCE            0.01

[COORDINATES]
;Node      X-Coord    Y-Coord   
1                4000.000000000       7000.000000000
2                5000.000000000       7000.000000000
3                4000.000000000       6000.000000000
4                5000.000000000       6000.000000000
5                4000.000000000       5000.000000000
6                5000.000000000       5000.000000000
7                6000.000000000       7000.000000000

[VERTICES]
;Link      X-Coord    Y-Coord   

[LABELS]

[BACKDROP]
DIMENSIONS    2900.000    4900.000    5100.000    7100.000
UNITS    METERS
OFFSET    0.00    0.00

[END]
