; Filename: D:/OneDrive/IHE_HI/015. Thesis/Github_repositories\Msc-Thesis/INP_FILES/Twoloops_Base_WNTR.inp
; WNTR: 0.4.2
; Created: 2023-03-07 09:37:56
[TITLE]

[JUNCTIONS]
;ID                      Elevation       Demand Pattern                 
 1                                160             100 32                         ;
 2                                150             100 32                         ;
 3                                150             270 32                         ;
 4                                155             120 32                         ;
 5                                160             200 32                         ;
 6                                165             330 32                         ;

[RESERVOIRS]
;ID                                   Head                  Pattern
 7                                210                            ;

[TANKS]
;ID                              Elevation           Init Level            Min Level            Max Level             Diameter           Min Volume Volume Curve         Overflow            

[PIPES]
;ID                   Node1                Node2                              Length             Diameter            Roughness           Minor Loss               Status
 1                    2                    1                               1000             200             130               0                 Open   ;
 2                    1                    3                               1000             150             130               0                 Open   ;
 3                    2                    4                               1000             450             130               0                 Open   ;
 4                    4                    3                               1000             150             130               0                 Open   ;
 5                    5                    3                               1000             150             130               0                 Open   ;
 6                    4                    6                               1000             400             130               0                 Open   ;
 7                    6                    5                               1000             250             130               0                 Open   ;
 8                    7                    2                               1000             450             130               0                 Open   ;

[PUMPS]
;ID                   Node1                Node2                Properties          

[VALVES]
;ID                   Node1                Node2                            Diameter Type              Setting           Minor Loss

[TAGS]
;type      name       tag       

[DEMANDS]
;ID        Demand     Pattern   

[STATUS]
;ID        Setting   

[PATTERNS]
;ID        Multipliers

32 0.963506 0.875664 0.858918 0.865106 0.820947 0.707476
32 0.737950 0.683613 0.663910 0.658091 0.633662 0.649988
32 0.618265 0.589990 0.585741 0.572584 0.588762 0.542457
32 0.545819 0.513630 0.471392 0.532117 0.530045 0.491160
32 0.545395 0.464935 0.487980 0.476668 0.502144 0.493029
32 0.460633 0.456296 0.425072 0.397246 0.415706 0.413682
32 0.419685 0.406928 0.370294 0.359501 0.337138 0.321077
32 0.307245 0.345200 0.305741 0.300368 0.286277 0.308681
32 0.280633 0.300860 0.298272 0.322167 0.320008 0.321233
32 0.347809 0.365505 0.371105 0.384644 0.378789 0.389721
32 0.389241 0.396245 0.389128 0.373725 0.403474 0.394225
32 0.376199 0.414393 0.399766 0.428105 0.457924 0.471328
32 0.522788 0.512183 0.593993 0.618905 0.668876 0.736142
32 0.806849 0.884285 0.904174 1.050756 1.098877 1.070939
32 1.271436 1.349926 1.366830 1.341923 1.334272 1.492782
32 1.443276 1.571019 1.537722 1.609253 1.591453 1.630963
32 1.600672 1.725885 1.627033 1.650367 1.749962 1.540663
32 1.545013 1.688502 1.545818 1.743091 1.585330 1.558111
32 1.723068 1.688190 1.706103 1.638336 1.520057 1.686921
32 1.542912 1.601345 1.601290 1.523903 1.560604 1.567860
32 1.522586 1.421498 1.490375 1.535201 1.402063 1.417192
32 1.384220 1.494183 1.410344 1.377346 1.295735 1.346895
32 1.264935 1.283260 1.231265 1.279056 1.255877 1.199981
32 1.211801 1.124717 1.090638 1.164104 1.136244 1.142334
32 1.204858 1.127714 1.034850 1.109732 0.995978 1.022031
32 1.029322 1.094194 0.986637 0.977520 1.002125 0.975821
32 1.045065 0.955668 0.952830 0.981814 0.980576 1.079333
32 1.041650 1.008403 0.956484 1.039971 0.965045 0.941351
32 1.047521 1.007667 1.025086 0.993605 1.005915 0.938282
32 0.914250 0.969567 0.903988 0.898961 0.898766 0.907846
32 0.887256 0.844841 0.866354 0.806903 0.905328 0.825396
32 0.842696 0.884237 0.857972 0.941527 0.844312 0.904330
32 0.898586 0.863661 0.931778 0.913656 0.956437 0.966907
32 1.026469 1.004651 0.948606 0.962808 1.024633 1.016752
32 1.025605 0.943785 1.016934 0.996335 1.046805 1.039553
32 1.090264 1.073624 1.101881 1.056225 1.043298 1.074239
32 1.099251 1.124617 1.216448 1.121563 1.088092 1.123560
32 1.126138 1.177905 1.092310 1.175629 1.188899 1.201663
32 1.171329 1.198177 1.150100 1.205248 1.212464 1.269828
32 1.200176 1.306836 1.351756 1.176814 1.311723 1.330502
32 1.266853 1.282656 1.298692 1.291371 1.291276 1.219633
32 1.366820 1.361931 1.261854 1.226527 1.328827 1.270706
32 1.307382 1.283211 1.335994 1.336691 1.263480 1.229971
32 1.220260 1.335144 1.241642 1.277144 1.271938 1.299128
32 1.199313 1.307118 1.320883 1.293863 1.267904 1.282400
32 1.290188 1.121422 1.349456 1.259931 1.196304 1.195853
32 1.223700 1.178263 1.071367 1.241639 1.121258 1.149022
32 1.050183 1.119327 1.039007 1.022507 0.926895 0.979902
32 0.924833 0.906749 0.805793 0.778664 0.834280 0.705039
32 0.707066 0.719054 0.669268 0.662555 0.619966 0.623349
32 0.568643 0.626074 0.572803 0.549669 0.570369 0.536866
32 0.510298 0.503151 0.539575 0.515250 0.509590 0.528009
32 0.477463 0.479225 0.479590 0.482077 0.472338 0.460317
32 0.456667 0.447568 0.428037 0.417399 0.426202 0.396460
32 0.381482 0.383405 0.373749 0.396750 0.341978 0.353257
32 0.339606 0.304985 0.321757 0.291247 0.269323 0.306631
32 0.278929 0.308915 0.300888 0.338317 0.340645 0.331041
32 0.338622 0.341897 0.363593 0.375784 0.382980 0.397938
32 0.409256 0.407650 0.389916 0.378358 0.422498 0.389615
32 0.391941 0.398379 0.384239 0.419049 0.436410 0.480545
32 0.513969 0.538877 0.606374 0.644989 0.692580 0.758442
32 0.810800 0.868368 0.938217 0.968450 1.090885 1.095728
32 1.240398 1.242249 1.307869 1.378350 1.429846 1.342379
32 1.454793 1.550514 1.421432 1.572742 1.427519 1.521261
32 1.602472 1.504070 1.555000 1.528625 1.734664 1.639152
32 1.664670 1.610995 1.598997 1.512774 1.593183 1.557209
32 1.654907 1.666551 1.680640 1.634953 1.536592 1.497232
32 1.607460 1.573656 1.433690 1.555215 1.572817 1.515646
32 1.488897 1.438851 1.387587 1.504523 1.424298 1.412411
32 1.506379 1.429363 1.393782 1.362959 1.418191 1.409144
32 1.348334 1.311476 1.157545 1.251523 1.221176 1.214611
32 1.237904 1.047251 1.133410 1.156348 1.107641 1.050897
32 1.138234 1.098695 1.032346 1.075646 1.085865 1.041476
32 1.065191 1.027220 1.000855 0.964055 1.002629 1.010215
32 1.035033 0.994215 1.016940 0.960757 0.969186 0.997573
32 0.961205 1.037854 1.024417 1.017225 1.018892 1.084462
32 0.981245 0.907430 0.996551 0.979111 0.952449 0.925650
32 0.936950 0.950680 0.915218 1.013668 0.880275 0.878431
32 0.817610 0.903003 0.817524 0.866560 0.873500 0.856874
32 0.942966 0.917494 0.930778 0.855493 0.930550 0.912524
32 0.927771 0.943298 0.879498 0.904354 0.959807 0.836638
32 1.001910 0.974767 0.961064 0.980690 0.941028 0.976914
32 1.044011 1.061439 1.127707 1.023607 1.007944 1.022183
32 1.009128 1.056870 1.084635 1.074832 1.131808 1.081921
32 1.084712 1.082058 1.042770 1.053009 1.077991 1.198637
32 1.188505 1.219207 1.102022 1.080320 1.150308 1.198978
32 1.223937 1.260399 1.233438 1.315214 1.228341 1.203423
32 1.173748 1.222176 1.287860 1.237438 1.338059 1.368609
32 1.176781 1.348415 1.188668 1.327928 1.371494 1.310664
32 1.239714 1.274979 1.290638 1.293456 1.291132 1.294946
32 1.311101 1.236976 1.287448 1.379532 1.281227 1.278902
32 1.358931 1.169906 1.365239 1.270622 1.311562 1.306881
32 1.349008 1.283435 1.258683 1.356236 1.162458 1.278462
32 1.201448 1.222883 1.352227 1.238361 1.237944 1.128277
32 1.165006 1.193068 1.182632 1.175227 1.126627 1.127244
32 1.099687 0.977341 1.028762 1.028858 0.990164 0.921020
32 0.870997 0.823315 0.822226 0.829924 0.704245 0.716823
32 0.678519 0.709372 0.651881 0.635269 0.624565 0.625200
32 0.590583 0.515593 0.588031 0.574966 0.550681 0.523229
32 0.546654 0.539866 0.515135 0.514064 0.493268 0.502571
32 0.468991 0.501894 0.468689 0.484838 0.446527 0.454670
32 0.455772 0.419638 0.442753 0.424886 0.392191 0.389680
32 0.409682 0.402163 0.374137 0.369793 0.355048 0.344901
32 0.346713 0.300911 0.320549 0.301054 0.298676 0.295751
32 0.295498 0.288559 0.311621 0.338462 0.325949 0.337137
32 0.338629 0.357660 0.377022 0.374417 0.381595 0.401838
32 0.385312 0.406088 0.415408 0.423283 0.399183 0.422582
32 0.419093 0.390649 0.394612 0.422006 0.463260 0.467553
32 0.487987 0.572249 0.591293 0.577268 0.701807 0.769267
32 0.824404 0.898174 0.945822 0.960726 1.062787 1.097897
32 1.155228 1.191376 1.328909 1.356943 1.368987 1.395164
32 1.465559 1.562437 1.402759 1.572098 1.534836 1.466566
32 1.475475 1.552004 1.633029 1.649787 1.566255 1.694701
32 1.720383 1.651226 1.583558 1.690094 1.660708 1.661859
32 1.557986 1.413095 1.721929 1.479162 1.572038 1.716427
32 1.580254 1.610455 1.450115 1.424375 1.490734 1.578054
32 1.479225 1.439624 1.484468 1.520946 1.358777 1.356690
32 1.364300 1.452188 1.386311 1.470842 1.386985 1.316605
32 1.365784 1.292470 1.227774 1.279232 1.193373 1.196007
32 1.256262 1.171376 1.122562 1.122750 1.174852 1.089414
32 1.082978 1.064480 1.081969 1.045889 0.983954 1.004304
32 0.993628 1.074942 1.049989 1.034687 0.985750 0.969714
32 0.979699 0.956788 1.098423 0.909563 1.023079 0.950513
32 0.999351 0.965171 0.958407 0.960113 1.075834 0.998012
32 0.969372 1.017174 0.989079 1.009354 0.901612 0.975068
32 0.983181 0.881103 0.950748 0.987181 0.914903 0.937019
32 0.924141 0.868709 0.890662 0.830157 0.867295 0.891283
32 0.907144 0.883264 0.909589 0.847672 0.886734 0.895462
32 0.966585 0.898231 0.894457 0.920754 0.893684 0.943289
32 0.930928 0.885334 0.960568 0.959768 0.917375 0.988123
32 1.059574 1.030089 1.042841 0.971553 1.054961 1.049847
32 1.074227 1.078094 1.010176 1.074523 1.051390 1.089965
32 1.060514 1.165975 1.077295 1.083065 1.134728 1.090240
32 1.127925 1.117282 1.229760 1.209521 1.178786 1.171974
32 1.245164 1.229297 1.243866 1.228221 1.155683 1.243423
32 1.231569 1.299935 1.327132 1.249282 1.313896 1.385375
32 1.265279 1.391054 1.261105 1.308139 1.306854 1.307874
32 1.262815 1.274678 1.269452 1.319995 1.318881 1.416471
32 1.371291 1.273305 1.316927 1.352421 1.302840 1.298391
32 1.305434 1.348537 1.259399 1.286590 1.327538 1.318084
32 1.312458 1.278131 1.344101 1.399351 1.304741 1.267553
32 1.308307 1.234105 1.214009 1.242202 1.101455 1.158776
32 1.183298 1.119677 1.117919 1.126890 1.052223 1.086040
32 1.056957 1.055593 1.074667 1.005085 0.968155 0.938341
32 0.963506

[CURVES]
;ID         X-Value      Y-Value     

[CONTROLS]

[RULES]

[ENERGY]
GLOBAL EFFICIENCY      75.0000
GLOBAL PRICE           0.0000
DEMAND CHARGE          0.0000

[EMITTERS]
;ID        Flow coefficient

[QUALITY]

[SOURCES]
;Node      Type       Quality    Pattern   

[REACTIONS]
;Type           Pipe/Tank               Coefficient

 ORDER BULK 1
 ORDER TANK 1
 ORDER WALL 1
 GLOBAL BULK 0.0000    
 GLOBAL WALL 0.0000    
 LIMITING POTENTIAL 0.0000    
 ROUGHNESS CORRELATION 0.0000    

[MIXING]
;Tank ID             Model Fraction

[TIMES]
DURATION             72:00:00
HYDRAULIC TIMESTEP   00:05:00
QUALITY TIMESTEP     00:05:00
PATTERN TIMESTEP     00:05:00
PATTERN START        00:00:00
REPORT TIMESTEP      00:05:00
REPORT START         00:00:00
START CLOCKTIME      00:00:00 AM
RULE TIMESTEP        00:06:00
STATISTIC            NONE      

[REPORT]
 Status             	No
 Summary            	No
 Page               	0
 Nodes					ALL
 Links					ALL
 Flow					Yes
 Headloss				No
 Velocity 				No
 Demand 				Yes
 Head 					Yes
 Pressure 				Yes
 Quality 				No
 State 					Yes

[OPTIONS]
UNITS                CMH                 
HEADLOSS             H-W                 
SPECIFIC GRAVITY     1
VISCOSITY            1
TRIALS               40
ACCURACY             0.001
CHECKFREQ            2
MAXCHECK             10
UNBALANCED           CONTINUE 10
DEMAND MULTIPLIER    1
DEMAND MODEL         PDA
MINIMUM PRESSURE     0.00
REQUIRED PRESSURE    0.10
PRESSURE EXPONENT    0.5
EMITTER EXPONENT     0.5
QUALITY              NONE                
DIFFUSIVITY          1
TOLERANCE            0.01

[COORDINATES]
;Node      X-Coord    Y-Coord   
1                4000.000000000       7000.000000000
2                5000.000000000       7000.000000000
3                4000.000000000       6000.000000000
4                5000.000000000       6000.000000000
5                4000.000000000       5000.000000000
6                5000.000000000       5000.000000000
7                6000.000000000       7000.000000000

[VERTICES]
;Link      X-Coord    Y-Coord   

[LABELS]

[BACKDROP]
DIMENSIONS    2900.000    4900.000    5100.000    7100.000
UNITS    METERS
OFFSET    0.00    0.00

[END]
