; Filename: D:/OneDrive/IHE_HI/015. Thesis/Github_repositories\Msc-Thesis/INP_FILES/Twoloops_Base_WNTR.inp
; WNTR: 0.3.1
; Created: 2023-03-01 15:16:41
[TITLE]

[JUNCTIONS]
;ID                      Elevation       Demand Pattern                 
 1                                160             100 13                         ;
 2                                150             100 13                         ;
 3                                150             270 13                         ;
 4                                155             120 13                         ;
 5                                160             200 13                         ;
 6                                165             330 13                         ;

[RESERVOIRS]
;ID                                   Head                  Pattern
 7                                210                            ;

[TANKS]
;ID                              Elevation           Init Level            Min Level            Max Level             Diameter           Min Volume Volume Curve         Overflow            

[PIPES]
;ID                   Node1                Node2                              Length             Diameter            Roughness           Minor Loss               Status
 1                    2                    1                               1000             200             130               0                 Open   ;
 2                    1                    3                               1000             150             130               0                 Open   ;
 3                    2                    4                               1000             450             130               0                 Open   ;
 4                    4                    3                               1000             150             130               0                 Open   ;
 5                    5                    3                               1000             150             130               0                 Open   ;
 6                    4                    6                               1000             400             130               0                 Open   ;
 7                    6                    5                               1000             250             130               0                 Open   ;
 8                    7                    2                               1000             450             130               0                 Open   ;

[PUMPS]
;ID                   Node1                Node2                Properties          

[VALVES]
;ID                   Node1                Node2                            Diameter Type              Setting           Minor Loss

[TAGS]
;type      name       tag       

[DEMANDS]
;ID        Demand     Pattern   

[STATUS]
;ID        Setting   
[PATTERNS]
;ID        Multipliers

13 0.931753 0.800294 0.724848 0.676475 0.622411 0.553999
13 0.549311 0.516990 0.498968 0.484208 0.459114 0.443977
13 0.406088 0.364787 0.332678 0.307765 0.308964 0.315955
13 0.350382 0.373554 0.379576 0.406693 0.409399 0.420876
13 0.522698 0.617826 0.817779 1.010414 1.236787 1.391372
13 1.471480 1.560464 1.571591 1.559904 1.616408 1.622408
13 1.639369 1.619057 1.547550 1.524139 1.468543 1.416450
13 1.360667 1.408133 1.286749 1.234449 1.163016 1.161787
13 1.064494 1.057749 1.013654 1.018762 0.989784 0.975718
13 1.002974 1.014612 1.001330 0.987032 0.941605 0.917753
13 0.887896 0.879302 0.867305 0.856177 0.903194 0.912576
13 0.913921 0.981113 0.981854 1.027709 1.067305 1.079082
13 1.125067 1.095717 1.156649 1.156600 1.179101 1.215275
13 1.250531 1.284491 1.269706 1.330485 1.318764 1.262921
13 1.338695 1.349863 1.333460 1.298880 1.272160 1.316493
13 1.259678 1.270904 1.204999 1.169329 1.087780 1.012303
13 0.900189 0.822298 0.712736 0.652663 0.622598 0.549812
13 0.525371 0.528614 0.488269 0.498933 0.454008 0.424979
13 0.415384 0.374676 0.342067 0.311265 0.294833 0.329377
13 0.346335 0.386145 0.407578 0.400201 0.407384 0.435097
13 0.503764 0.622344 0.821905 1.041116 1.183330 1.347605
13 1.454167 1.606031 1.621513 1.637487 1.602669 1.634794
13 1.578421 1.582043 1.539798 1.554156 1.517298 1.451781
13 1.419898 1.325630 1.261227 1.256304 1.196882 1.158527
13 1.152429 1.082335 1.013296 1.033524 0.973682 0.990089
13 1.002169 1.040466 0.985105 0.964881 0.951827 0.912192
13 0.920279 0.866542 0.861410 0.879029 0.891035 0.955471
13 0.962662 0.973818 0.975491 1.043980 1.030922 1.043053
13 1.126137 1.130584 1.168548 1.180136 1.220564 1.213500
13 1.232343 1.300540 1.279111 1.288915 1.294691 1.303410
13 1.290796 1.264785 1.285977 1.245604 1.316256 1.247992
13 1.241868 1.241868 1.182250 1.182321 1.052154 1.003528
13 0.899293 0.775392 0.718372 0.645236 0.609261 0.574349
13 0.562391 0.532421 0.496308 0.477965 0.467864 0.437083
13 0.405121 0.352133 0.329590 0.301212 0.301680 0.316634
13 0.354540 0.382457 0.406291 0.397701 0.394840 0.423713
13 0.499830 0.641161 0.853950 1.013354 1.177057 1.342298
13 1.453333 1.563664 1.550694 1.626305 1.632829 1.624861
13 1.580886 1.573513 1.515211 1.518281 1.483714 1.469985
13 1.376166 1.376432 1.338857 1.193802 1.203075 1.159485
13 1.085976 1.053829 1.029396 1.004919 0.993820 0.965818
13 1.026667 1.027716 0.983733 0.952323 0.963643 0.913813
13 0.902555 0.880015 0.893837 0.899116 0.886939 0.894516
13 0.914814 0.983983 0.976223 1.016236 1.039419 1.075174
13 1.057402 1.127704 1.159438 1.174735 1.192539 1.231904
13 1.268415 1.211902 1.350854 1.317135 1.289547 1.292766
13 1.312837 1.297529 1.249837 1.357395 1.297126 1.315609
13 1.252341 1.278693 1.206872 1.160892 1.057503 1.022376
13 0.912417 0.814612 0.702001 0.641228 0.627647 0.553064
13 0.537603 0.530351 0.500977 0.485864 0.454138 0.434622
13 0.389548 0.375969 0.328971 0.301566 0.303998 0.314334
13 0.338910 0.369809 0.405550 0.400164 0.401366 0.436426
13 0.488732 0.627036 0.810742 1.016125 1.198988 1.343895
13 1.465126 1.545426 1.576973 1.597840 1.636671 1.588532
13 1.562965 1.571162 1.554713 1.602620 1.478859 1.485357
13 1.429793 1.323031 1.320105 1.215873 1.129462 1.157870
13 1.061370 1.071849 1.018019 1.044494 1.021370 0.990253
13 0.989734 0.981567 0.991182 0.975596 0.946748 0.927357
13 0.910413 0.891865 0.868169 0.861293 0.924562 0.907283
13 0.932398 0.961983 0.963139 1.016828 1.041874 1.089660
13 1.115366 1.123547 1.168800 1.180635 1.199624 1.233466
13 1.253574 1.272917 1.293039 1.277454 1.313924 1.277074
13 1.321882 1.294060 1.304036 1.316446 1.316726 1.248803
13 1.264663 1.262412 1.159245 1.155810 1.031358 0.977784
13 0.900695 0.767634 0.696919 0.628398 0.619778 0.566899
13 0.545184 0.516250 0.496466 0.464737 0.455123 0.424858
13 0.406863 0.372206 0.339423 0.310938 0.296408 0.310177
13 0.353541 0.382754 0.385852 0.404300 0.408998 0.427720
13 0.498149 0.626057 0.793394 1.030445 1.192581 1.345339
13 1.517770 1.569953 1.611866 1.628865 1.677217 1.672974
13 1.629744 1.599447 1.494295 1.537205 1.496097 1.460593
13 1.435311 1.280998 1.285198 1.252082 1.181767 1.111579
13 1.119117 1.068151 1.012093 1.017305 1.016432 0.999420
13 1.019607 1.007569 0.992095 0.958347 0.952065 0.928052
13 0.915765 0.883632 0.889709 0.869685 0.885913 0.917937
13 0.924796 0.988063 1.009263 1.032373 1.059096 1.119811
13 1.089685 1.073997 1.151989 1.171474 1.187580 1.205440
13 1.247319 1.287703 1.286927 1.369997 1.281495 1.282286
13 1.240496 1.307090 1.250209 1.289507 1.292833 1.271002
13 1.314082 1.265246 1.231659 1.126685 1.104462 1.008099
13 0.913885 0.810287 0.698010 0.641963 0.610351 0.535032
13 0.555384 0.524296 0.499543 0.482382 0.448365 0.428409
13 0.408802 0.373348 0.347532 0.305273 0.296049 0.313994
13 0.341112 0.379454 0.403062 0.401171 0.411266 0.425216
13 0.496525 0.628938 0.790353 0.982410 1.171700 1.386832
13 1.493200 1.591340 1.557369 1.560299 1.606246 1.623038
13 1.615958 1.614174 1.568499 1.586855 1.493322 1.431231
13 1.361373 1.331162 1.306295 1.223224 1.215254 1.176312
13 1.047869 1.080626 0.985907 1.019057 1.024497 1.000611
13 0.977855 0.994215 0.994767 0.977521 0.949834 0.922428
13 0.903843 0.864263 0.877376 0.913721 0.893076 0.911802
13 0.965095 0.922359 1.023628 1.013668 1.055414 1.078379
13 1.120734 1.117449 1.131856 1.203100 1.143260 1.230009
13 1.224448 1.263507 1.352293 1.305773 1.311693 1.256528
13 1.281045 1.305662 1.311990 1.319654 1.300224 1.302892
13 1.281443 1.195175 1.200888 1.164541 1.092825 0.990933
13 0.885499 0.776183 0.709068 0.662130 0.576578 0.557585
13 0.526780 0.526701 0.494457 0.475743 0.455809 0.435272
13 0.396861 0.341731 0.333334 0.308410 0.298683 0.310379
13 0.350652 0.382928 0.396240 0.399706 0.394955 0.425691
13 0.484496 0.641646 0.801600 1.019041 1.166257 1.335699
13 1.463692 1.497310 1.603685 1.611934 1.571012 1.575194
13 1.619364 1.609355 1.555517 1.545824 1.506715 1.467465
13 1.444973 1.314410 1.317588 1.235845 1.187555 1.137082
13 1.091747 1.036218 1.035924 1.044724 0.998877 0.999287
13 0.989745 1.003630 1.009323 0.973832 0.945049 0.931915
13 0.883476 0.890144 0.896108 0.910914 0.898373 0.945131
13 0.964267 0.952747 0.975641 1.020381 1.073613 1.074750
13 1.086786 1.158340 1.154000 1.118236 1.207612 1.242297
13 1.264050 1.294589 1.298251 1.272477 1.296908 1.278312
13 1.275749 1.267695 1.314536 1.306123 1.288348 1.272559
13 1.269323 1.267350 1.151899 1.155571 1.068294 0.960573
13 0.931753

[CURVES]
;ID         X-Value      Y-Value     

[CONTROLS]

[RULES]

[ENERGY]
GLOBAL EFFICIENCY      75.0000
GLOBAL PRICE           0.0000
DEMAND CHARGE          0.0000

[EMITTERS]
;ID        Flow coefficient

[QUALITY]

[SOURCES]
;Node      Type       Quality    Pattern   

[REACTIONS]
;Type           Pipe/Tank               Coefficient

 ORDER BULK 1
 ORDER TANK 1
 ORDER WALL 1
 GLOBAL BULK 0.0000    
 GLOBAL WALL 0.0000    
 LIMITING POTENTIAL 0.0000    
 ROUGHNESS CORRELATION 0.0000    

[MIXING]
;Tank ID             Model Fraction

[TIMES]
DURATION             168:00:00
HYDRAULIC TIMESTEP   00:15:00
QUALITY TIMESTEP     00:05:00
PATTERN TIMESTEP     00:15:00
PATTERN START        00:00:00
REPORT TIMESTEP      00:15:00
REPORT START         00:00:00
START CLOCKTIME      00:00:00 AM
RULE TIMESTEP        00:06:00
STATISTIC            NONE      

[REPORT]
 Status             	No
 Summary            	No
 Page               	0
 Nodes					ALL
 Links					ALL
 Flow					Yes
 Headloss				No
 Velocity 				No
 Demand 				Yes
 Head 					Yes
 Pressure 				Yes
 Quality 				No
 State 					Yes

[OPTIONS]
UNITS                CMH                 
HEADLOSS             H-W                 
SPECIFIC GRAVITY     1
VISCOSITY            1
TRIALS               40
ACCURACY             0.001
CHECKFREQ            2
MAXCHECK             10
UNBALANCED           CONTINUE 10
DEMAND MULTIPLIER    1
DEMAND MODEL         PDA
MINIMUM PRESSURE     0.00
REQUIRED PRESSURE    0.10
PRESSURE EXPONENT    0.5
EMITTER EXPONENT     0.5
QUALITY              NONE                
DIFFUSIVITY          1
TOLERANCE            0.01

[COORDINATES]
;Node      X-Coord    Y-Coord   
1                4000.000000000       7000.000000000
2                5000.000000000       7000.000000000
3                4000.000000000       6000.000000000
4                5000.000000000       6000.000000000
5                4000.000000000       5000.000000000
6                5000.000000000       5000.000000000
7                6000.000000000       7000.000000000

[VERTICES]
;Link      X-Coord    Y-Coord   

[LABELS]

[BACKDROP]
DIMENSIONS    2900.000    4900.000    5100.000    7100.000
UNITS    METERS
OFFSET    0.00    0.00

[END]
