; Filename: D:/OneDrive/IHE_HI/015. Thesis/Github_repositories\Msc-Thesis/INP_FILES/Twoloops_Base_WNTR.inp
; WNTR: 0.4.2
; Created: 2023-03-07 09:40:46
[TITLE]

[JUNCTIONS]
;ID                      Elevation       Demand Pattern                 
 1                                160             100 72                         ;
 2                                150             100 72                         ;
 3                                150             270 72                         ;
 4                                155             120 72                         ;
 5                                160             200 72                         ;
 6                                165             330 72                         ;

[RESERVOIRS]
;ID                                   Head                  Pattern
 7                                210                            ;

[TANKS]
;ID                              Elevation           Init Level            Min Level            Max Level             Diameter           Min Volume Volume Curve         Overflow            

[PIPES]
;ID                   Node1                Node2                              Length             Diameter            Roughness           Minor Loss               Status
 1                    2                    1                               1000             200             130               0                 Open   ;
 2                    1                    3                               1000             150             130               0                 Open   ;
 3                    2                    4                               1000             450             130               0                 Open   ;
 4                    4                    3                               1000             150             130               0                 Open   ;
 5                    5                    3                               1000             150             130               0                 Open   ;
 6                    4                    6                               1000             400             130               0                 Open   ;
 7                    6                    5                               1000             250             130               0                 Open   ;
 8                    7                    2                               1000             450             130               0                 Open   ;

[PUMPS]
;ID                   Node1                Node2                Properties          

[VALVES]
;ID                   Node1                Node2                            Diameter Type              Setting           Minor Loss

[TAGS]
;type      name       tag       

[DEMANDS]
;ID        Demand     Pattern   

[STATUS]
;ID        Setting   

[PATTERNS]
;ID        Multipliers

72 0.963506 0.722311 0.623490 0.587388 0.537351 0.439900
72 0.415201 0.327754 0.298761 0.353921 0.402305 0.425852
72 0.515221 0.821008 1.221305 1.486513 1.695621 1.614376
72 1.620036 1.506348 1.346821 1.445572 1.344951 1.157492
72 1.199869 0.972095 1.001830 0.996025 1.061311 1.009758
72 0.905578 0.894979 0.868040 0.869871 0.986084 1.058544
72 1.154133 1.202601 1.181408 1.243156 1.245475 1.232380
72 1.211274 1.404401 1.273498 1.247665 1.139866 1.113672
72 0.841900 0.704882 0.578509 0.547411 0.489784 0.436176
72 0.399549 0.335400 0.300798 0.352415 0.389851 0.396602
72 0.486551 0.805280 1.160969 1.365640 1.611355 1.601574
72 1.495667 1.588502 1.445562 1.411668 1.337913 1.199060
72 1.150134 0.981158 1.016094 0.976050 0.965168 0.931622
72 0.888784 0.883624 0.858055 0.978764 1.018626 0.987322
72 1.165483 1.234430 1.256581 1.249316 1.244321 1.361705
72 1.279035 1.366448 1.310830 1.319528 1.217106 1.110609
72 0.900378 0.761717 0.603046 0.547736 0.537663 0.433115
72 0.379672 0.342537 0.285923 0.375273 0.393382 0.390409
72 0.538459 0.865416 1.289643 1.520098 1.544882 1.752097
72 1.582848 1.609693 1.556835 1.400006 1.331932 1.236909
72 1.116563 0.986750 1.011930 1.056782 0.972217 0.947996
72 0.884334 0.946859 0.924203 0.960120 0.969203 1.074656
72 1.070329 1.148876 1.169479 1.292420 1.329983 1.295709
72 1.320592 1.245787 1.222455 1.292237 1.208000 1.107518
72 0.985793 0.737790 0.578092 0.563154 0.473682 0.449343
72 0.398908 0.352350 0.291063 0.336691 0.398425 0.391761
72 0.522533 0.781738 1.144922 1.441244 1.568126 1.753364
72 1.660763 1.565093 1.426474 1.456320 1.247989 1.119194
72 1.152273 1.045224 1.036834 1.016333 1.034273 0.928869
72 0.862767 0.905680 0.871077 0.918666 0.981779 1.052701
72 1.084424 1.084310 1.169106 1.146458 1.332512 1.222866
72 1.242572 1.305465 1.261543 1.348298 1.137943 1.091620
72 0.898586 0.677714 0.612559 0.535369 0.515436 0.472875
72 0.434612 0.347380 0.295570 0.344868 0.417595 0.412990
72 0.512803 0.764187 1.198832 1.423628 1.617915 1.621343
72 1.658251 1.579421 1.547180 1.382458 1.250889 1.173339
72 1.099251 1.047792 1.090372 1.001843 0.961762 0.940506
72 0.883311 0.898623 0.844531 0.947113 1.006260 1.061735
72 1.073718 1.136496 1.131645 1.233541 1.271771 1.328340
72 1.239879 1.343455 1.377713 1.164769 1.220460 1.109327
72 0.877052 0.699634 0.596811 0.532647 0.493820 0.427105
72 0.418437 0.343991 0.290240 0.327777 0.408337 0.393173
72 0.502839 0.806595 1.233194 1.507700 1.553562 1.537664
72 1.498692 1.597710 1.428668 1.380182 1.268992 1.190397
72 1.014804 1.039933 1.020956 1.007089 0.987565 0.957420
72 0.914366 0.783866 0.970413 0.959464 0.973904 1.035515
72 1.121725 1.142087 1.102527 1.362288 1.294252 1.359913
72 1.264013 1.382807 1.314890 1.300845 1.149828 1.132408
72 0.924833 0.747953 0.584926 0.528696 0.546078 0.438384
72 0.397825 0.344746 0.301173 0.356321 0.393609 0.408399
72 0.473869 0.871221 1.194328 1.427023 1.642649 1.597737
72 1.514607 1.475616 1.541626 1.399749 1.293048 1.244331
72 1.050420 1.001973 0.984605 1.007327 0.998313 0.942760
72 0.897781 0.877859 0.874094 0.914001 1.010981 1.014477
72 1.049076 1.133082 1.192432 1.371964 1.263356 1.355894
72 1.338854 1.240791 1.340209 1.209781 1.072360 1.106277
72 0.836788 0.723755 0.583584 0.574853 0.521370 0.449493
72 0.388995 0.313737 0.294709 0.344297 0.394165 0.404964
72 0.511570 0.828458 1.163321 1.382568 1.687330 1.582844
72 1.558253 1.527117 1.389416 1.381807 1.275058 1.222506
72 1.130732 1.032295 1.037274 1.017186 0.999373 0.959844
72 0.893136 0.867719 0.890362 0.902097 1.011218 1.010176
72 1.137032 1.135966 1.202376 1.283230 1.333452 1.224508
72 1.289241 1.348613 1.211698 1.289590 1.091733 1.035907
72 0.901391 0.663819 0.576348 0.507331 0.532963 0.460803
72 0.409077 0.326814 0.295759 0.325688 0.395331 0.390184
72 0.517158 0.854324 1.270396 1.516959 1.561686 1.555078
72 1.649066 1.581859 1.393888 1.428772 1.342355 1.195717
72 1.091858 0.998795 0.942139 1.035664 0.987635 0.944798
72 0.962378 0.905783 0.913350 0.950091 1.060800 1.124323
72 1.140898 1.174138 1.099459 1.264600 1.293234 1.311506
72 1.349038 1.159983 1.270396 1.283628 1.177591 1.018867
72 0.931283 0.718805 0.576693 0.545857 0.516432 0.457892
72 0.412809 0.330783 0.295257 0.332053 0.398625 0.405569
72 0.517517 0.813269 1.221956 1.410333 1.549912 1.620546
72 1.532504 1.610803 1.527788 1.424468 1.317623 1.289342
72 1.079370 0.941251 1.007972 1.001508 0.979299 0.916364
72 0.884189 0.888038 0.881899 1.035887 0.961580 1.018592
72 0.999301 1.158958 1.103212 1.231219 1.285665 1.269502
72 1.390421 1.354565 1.368595 1.225094 1.254173 1.101511
72 0.927771 0.740206 0.578190 0.529919 0.517252 0.409166
72 0.424213 0.337047 0.299452 0.351273 0.383521 0.396808
72 0.522006 0.859452 1.329419 1.462596 1.557853 1.594252
72 1.534845 1.554774 1.522964 1.406811 1.357010 1.181729
72 1.084712 1.008141 0.934695 0.940607 0.952834 1.003352
72 0.932229 0.930132 0.852040 0.870331 0.973598 1.059364
72 1.121942 1.195514 1.213645 1.346089 1.288425 1.258874
72 1.212577 1.256423 1.312590 1.224774 1.244964 1.141099
72 0.814695 0.735503 0.546250 0.547726 0.524497 0.458983
72 0.379525 0.322029 0.296860 0.345664 0.396754 0.400673
72 0.504270 0.777533 1.188383 1.556021 1.575383 1.598836
72 1.669005 1.399976 1.570883 1.373133 1.308524 1.197501
72 1.141469 1.021091 0.972879 1.055637 0.905433 0.954480
72 0.851475 0.854786 0.972405 0.943038 1.007803 0.977000
72 1.067922 1.156437 1.217028 1.289423 1.300449 1.334138
72 1.323597 1.207399 1.301924 1.308925 1.228314 1.064362
72 0.870997 0.679130 0.596855 0.563501 0.460964 0.445711
72 0.381763 0.340104 0.293348 0.341647 0.396529 0.409612
72 0.492152 0.717479 1.226079 1.492696 1.585949 1.557153
72 1.622514 1.583290 1.471798 1.396528 1.251632 1.184383
72 1.031781 1.049368 0.962225 1.013097 0.943761 0.931195
72 0.896022 0.823077 0.904145 0.930395 0.930306 0.997127
72 1.126625 1.188519 1.193668 1.278746 1.311640 1.323823
72 1.366871 1.224217 1.335176 1.250513 1.189236 1.067024
72 0.886495 0.676062 0.604400 0.575098 0.498877 0.457770
72 0.389003 0.328201 0.305594 0.343045 0.392739 0.408933
72 0.481640 0.825283 1.239375 1.546732 1.594216 1.716777
72 1.666202 1.497482 1.426924 1.391556 1.353505 1.189456
72 1.073571 1.096224 1.011476 0.910387 1.012686 0.973543
72 0.908122 0.897503 0.897578 0.894902 0.985172 1.012175
72 1.058959 1.089445 1.221719 1.263300 1.276695 1.272658
72 1.298782 1.358983 1.195781 1.289062 1.173806 0.998662
72 0.829955 0.684975 0.605268 0.547544 0.481220 0.476419
72 0.422768 0.334975 0.292903 0.363863 0.412086 0.416405
72 0.486871 0.724394 1.301606 1.372412 1.597711 1.782742
72 1.621157 1.618850 1.409856 1.308570 1.272299 1.244951
72 1.084765 0.999332 1.007919 1.046970 0.942202 0.907524
72 0.871608 0.920246 0.908454 1.025295 1.037458 1.050489
72 1.155663 1.157123 1.166164 1.292599 1.263791 1.291418
72 1.369045 1.297469 1.258237 1.246331 1.249046 1.056211
72 0.886073 0.696420 0.604414 0.530756 0.467963 0.441549
72 0.385075 0.346150 0.309752 0.356381 0.391914 0.389309
72 0.489850 0.782654 1.319866 1.335184 1.636097 1.544097
72 1.593322 1.497995 1.429342 1.344491 1.391259 1.186559
72 1.066309 1.055085 1.000414 1.032442 0.927030 0.965286
72 0.927817 0.823046 0.916135 1.008820 0.999406 1.086529
72 1.129505 1.114943 1.201909 1.179498 1.276532 1.320481
72 1.337601 1.304029 1.337439 1.213894 1.195119 1.080915
72 0.966585 0.704841 0.588024 0.539529 0.481618 0.461325
72 0.394159 0.306123 0.299297 0.343779 0.373881 0.401361
72 0.529787 0.834068 1.229373 1.388218 1.630521 1.637399
72 1.633859 1.585997 1.418413 1.406408 1.260591 1.190515
72 1.060514 1.086325 0.965641 0.967454 1.002983 0.912615
72 0.884712 0.852374 0.950802 0.974418 0.997701 1.035504
72 1.141400 1.166013 1.223907 1.257054 1.212212 1.300717
72 1.272311 1.336360 1.352616 1.236496 1.222482 1.155078
72 0.875962 0.758761 0.579538 0.539563 0.499777 0.458006
72 0.386597 0.321953 0.291987 0.352756 0.405281 0.438274
72 0.527420 0.800369 1.215594 1.525442 1.601959 1.623199
72 1.603301 1.613737 1.449101 1.390390 1.324463 1.207766
72 1.110542 1.016872 1.038901 1.089196 1.016257 0.946335
72 0.927207 0.862630 0.873011 0.945963 0.896688 1.003409
72 1.084690 1.085300 1.150433 1.236389 1.214566 1.285372
72 1.272166 1.304071 1.360018 1.278680 1.201011 1.084379
72 0.908186 0.682018 0.597245 0.545726 0.472585 0.473647
72 0.417302 0.321423 0.297104 0.335970 0.411190 0.385359
72 0.495550 0.788961 1.202446 1.361653 1.684894 1.564929
72 1.603833 1.546373 1.454273 1.358715 1.348693 1.167823
72 1.111931 0.999049 0.974113 1.022496 1.037216 0.947016
72 0.848811 0.952103 0.869164 0.886468 1.103777 1.034964
72 1.035684 1.116048 1.217642 1.267952 1.255710 1.401858
72 1.272878 1.241013 1.349956 1.337430 1.160760 1.019539
72 0.937096 0.652711 0.570561 0.559929 0.498893 0.452962
72 0.405645 0.327736 0.284416 0.365975 0.421200 0.405747
72 0.500903 0.893493 1.186731 1.451703 1.623327 1.723531
72 1.701937 1.543500 1.518500 1.331086 1.283777 1.152810
72 1.055699 1.101564 0.968309 0.982200 1.014634 1.003214
72 0.917320 0.978954 0.897312 0.954499 1.011024 1.112350
72 1.122319 1.142081 1.154521 1.270676 1.372870 1.285147
72 1.327505 1.315573 1.344903 1.229039 1.312639 1.024818
72 0.886840 0.737609 0.607122 0.556965 0.490078 0.456425
72 0.400196 0.350449 0.308285 0.359298 0.389473 0.418039
72 0.504512 0.862430 1.296675 1.448934 1.573997 1.571476
72 1.590811 1.535799 1.521570 1.400595 1.281197 1.243703
72 1.058733 1.050020 0.983762 1.032616 1.055410 0.942142
72 0.915877 0.887948 0.871221 0.953822 1.011565 1.069338
72 1.091270 1.151739 1.144915 1.240347 1.328910 1.353239
72 1.278040 1.308203 1.311859 1.280152 1.225957 1.001535
72 0.898224 0.717729 0.575992 0.575164 0.503231 0.486424
72 0.387352 0.317783 0.302691 0.324821 0.403439 0.404007
72 0.520313 0.839942 1.179961 1.402536 1.709588 1.576160
72 1.533086 1.491952 1.567038 1.379501 1.260807 1.199475
72 1.090894 1.004143 1.030160 1.046303 1.039413 0.982961
72 0.914495 0.819015 0.960093 0.956135 1.024326 1.098881
72 1.163068 1.166619 1.220906 1.228210 1.301721 1.261954
72 1.262563 1.256183 1.291887 1.323208 1.352207 1.088269
72 0.851457 0.746904 0.592781 0.524824 0.504197 0.435077
72 0.403559 0.328585 0.301181 0.353514 0.401080 0.402705
72 0.505686 0.830607 1.150489 1.383026 1.596055 1.534449
72 1.605602 1.618195 1.536427 1.349677 1.255266 1.208570
72 1.082343 1.019066 1.023876 0.963908 0.983951 0.923183
72 0.862447 0.851418 0.924389 0.946681 0.964834 1.042241
72 1.027892 1.113759 1.303180 1.253830 1.338046 1.303173
72 1.318105 1.337309 1.242560 1.268346 1.275786 1.045714
72 0.879608 0.702182 0.606457 0.550387 0.525348 0.466942
72 0.399007 0.346359 0.308449 0.327370 0.440422 0.430933
72 0.496636 0.829382 1.263569 1.456830 1.646743 1.699652
72 1.535051 1.522055 1.555285 1.434708 1.348037 1.186579
72 1.087284 0.949624 0.954160 1.005428 1.032982 0.973968
72 0.895383 0.872059 0.907818 0.947678 1.056182 1.058127
72 1.034825 1.089009 1.272900 1.199422 1.339754 1.292569
72 1.291173 1.295757 1.363512 1.260122 1.198401 1.013947
72 0.907441 0.726033 0.605739 0.569211 0.501103 0.463270
72 0.426376 0.309306 0.294530 0.368066 0.414978 0.413362
72 0.516653 0.827720 1.278317 1.489100 1.615351 1.638083
72 1.612343 1.487451 1.546240 1.401391 1.394740 1.189295
72 1.118520 1.042320 0.974978 1.043365 1.076203 0.953141
72 0.889183 0.869123 0.831875 0.938003 1.010040 1.096348
72 1.142242 1.128300 1.186712 1.314944 1.290980 1.279939
72 1.372411 1.356815 1.300977 1.239756 1.103430 1.105559
72 0.867731 0.655117 0.638036 0.553040 0.477220 0.435557
72 0.413935 0.318170 0.315554 0.356788 0.408586 0.408956
72 0.503829 0.845807 1.178204 1.471977 1.648125 1.664390
72 1.523521 1.528413 1.515168 1.385749 1.392282 1.174145
72 1.092862 1.063905 1.013221 0.997708 0.969740 0.965207
72 0.937407 0.898539 0.871985 1.010354 0.942137 0.985368
72 1.142265 1.157781 1.173624 1.203076 1.420682 1.312715
72 1.327778 1.319312 1.322610 1.297353 1.235156 1.063871
72 0.889501 0.661422 0.581273 0.544914 0.520900 0.468765
72 0.394549 0.313089 0.266672 0.364243 0.390572 0.395223
72 0.502631 0.771096 1.183210 1.585666 1.632345 1.651124
72 1.498720 1.699599 1.414632 1.517063 1.190017 1.259964
72 1.171194 0.998103 1.016903 1.025516 0.967448 0.898423
72 0.852562 0.900722 0.896936 0.923399 1.038671 1.073344
72 1.066760 1.092284 1.225117 1.231313 1.305159 1.388979
72 1.326121 1.257814 1.308354 1.221527 1.277209 1.055820
72 0.907462 0.719683 0.603822 0.496837 0.471072 0.449512
72 0.405111 0.327933 0.288514 0.329421 0.393575 0.394900
72 0.510257 0.806367 1.228930 1.432041 1.583619 1.605073
72 1.549929 1.598630 1.451184 1.379347 1.296198 1.130999
72 1.085703 1.002772 0.984474 1.001134 0.968003 0.945309
72 0.947112 0.880733 0.941229 0.957817 1.030966 1.019377
72 1.104616 1.153562 1.170594 1.216955 1.222506 1.384789
72 1.249435 1.372898 1.275690 1.226106 1.229881 1.052813
72 0.963506

[CURVES]
;ID         X-Value      Y-Value     

[CONTROLS]

[RULES]

[ENERGY]
GLOBAL EFFICIENCY      75.0000
GLOBAL PRICE           0.0000
DEMAND CHARGE          0.0000

[EMITTERS]
;ID        Flow coefficient

[QUALITY]

[SOURCES]
;Node      Type       Quality    Pattern   

[REACTIONS]
;Type           Pipe/Tank               Coefficient

 ORDER BULK 1
 ORDER TANK 1
 ORDER WALL 1
 GLOBAL BULK 0.0000    
 GLOBAL WALL 0.0000    
 LIMITING POTENTIAL 0.0000    
 ROUGHNESS CORRELATION 0.0000    

[MIXING]
;Tank ID             Model Fraction

[TIMES]
DURATION             672:00:00
HYDRAULIC TIMESTEP   00:30:00
QUALITY TIMESTEP     00:05:00
PATTERN TIMESTEP     00:30:00
PATTERN START        00:00:00
REPORT TIMESTEP      00:30:00
REPORT START         00:00:00
START CLOCKTIME      00:00:00 AM
RULE TIMESTEP        00:06:00
STATISTIC            NONE      

[REPORT]
 Status             	No
 Summary            	No
 Page               	0
 Nodes					ALL
 Links					ALL
 Flow					Yes
 Headloss				No
 Velocity 				No
 Demand 				Yes
 Head 					Yes
 Pressure 				Yes
 Quality 				No
 State 					Yes

[OPTIONS]
UNITS                CMH                 
HEADLOSS             H-W                 
SPECIFIC GRAVITY     1
VISCOSITY            1
TRIALS               40
ACCURACY             0.001
CHECKFREQ            2
MAXCHECK             10
UNBALANCED           CONTINUE 10
DEMAND MULTIPLIER    1
DEMAND MODEL         PDA
MINIMUM PRESSURE     0.00
REQUIRED PRESSURE    0.10
PRESSURE EXPONENT    0.5
EMITTER EXPONENT     0.5
QUALITY              NONE                
DIFFUSIVITY          1
TOLERANCE            0.01

[COORDINATES]
;Node      X-Coord    Y-Coord   
1                4000.000000000       7000.000000000
2                5000.000000000       7000.000000000
3                4000.000000000       6000.000000000
4                5000.000000000       6000.000000000
5                4000.000000000       5000.000000000
6                5000.000000000       5000.000000000
7                6000.000000000       7000.000000000

[VERTICES]
;Link      X-Coord    Y-Coord   

[LABELS]

[BACKDROP]
DIMENSIONS    2900.000    4900.000    5100.000    7100.000
UNITS    METERS
OFFSET    0.00    0.00

[END]
