; Filename: D:/OneDrive/IHE_HI/015. Thesis/Github_repositories\Msc-Thesis/INP_FILES/Twoloops_Base_WNTR.inp
; WNTR: 0.3.1
; Created: 2023-03-01 15:16:32
[TITLE]

[JUNCTIONS]
;ID                      Elevation       Demand Pattern                 
 1                                160             100 4                          ;
 2                                150             100 4                          ;
 3                                150             270 4                          ;
 4                                155             120 4                          ;
 5                                160             200 4                          ;
 6                                165             330 4                          ;

[RESERVOIRS]
;ID                                   Head                  Pattern
 7                                210                            ;

[TANKS]
;ID                              Elevation           Init Level            Min Level            Max Level             Diameter           Min Volume Volume Curve         Overflow            

[PIPES]
;ID                   Node1                Node2                              Length             Diameter            Roughness           Minor Loss               Status
 1                    2                    1                               1000             200             130               0                 Open   ;
 2                    1                    3                               1000             150             130               0                 Open   ;
 3                    2                    4                               1000             450             130               0                 Open   ;
 4                    4                    3                               1000             150             130               0                 Open   ;
 5                    5                    3                               1000             150             130               0                 Open   ;
 6                    4                    6                               1000             400             130               0                 Open   ;
 7                    6                    5                               1000             250             130               0                 Open   ;
 8                    7                    2                               1000             450             130               0                 Open   ;

[PUMPS]
;ID                   Node1                Node2                Properties          

[VALVES]
;ID                   Node1                Node2                            Diameter Type              Setting           Minor Loss

[TAGS]
;type      name       tag       

[DEMANDS]
;ID        Demand     Pattern   

[STATUS]
;ID        Setting   
[PATTERNS]
;ID        Multipliers

4 0.931753 0.868766 0.842738 0.829523 0.792415 0.721867
4 0.724441 0.685695 0.665286 0.652774 0.631847 0.632122
4 0.609132 0.588561 0.580632 0.568813 0.572161 0.544701
4 0.542444 0.522714 0.498199 0.525339 0.521188 0.498674
4 0.522698 0.479294 0.487535 0.478466 0.487640 0.479345
4 0.459214 0.452897 0.432897 0.414337 0.418639 0.412396
4 0.409842 0.397592 0.373208 0.361701 0.344518 0.330745
4 0.318498 0.332707 0.308923 0.303047 0.293828 0.304025
4 0.290317 0.302151 0.303812 0.319712 0.323345 0.329194
4 0.348006 0.362427 0.370613 0.382345 0.383719 0.392590
4 0.394620 0.399136 0.395669 0.387585 0.402053 0.397444
4 0.389321 0.410627 0.407294 0.427661 0.451435 0.470119
4 0.511394 0.525489 0.589289 0.627620 0.680945 0.744867
4 0.811940 0.883294 0.926274 1.032484 1.088830 1.105998
4 1.235718 1.302348 1.336057 1.346787 1.364124 1.462575
4 1.455105 1.534400 1.531370 1.579002 1.580270 1.608548
4 1.600336 1.668351 1.622924 1.637309 1.688670 1.584559
4 1.586373 1.656987 1.583872 1.680221 1.598665 1.582121
4 1.661534 1.640997 1.646807 1.609686 1.547174 1.627053
4 1.551272 1.576444 1.572061 1.528657 1.541897 1.539971
4 1.511293 1.454192 1.481590 1.496528 1.422096 1.421459
4 1.396481 1.442727 1.391877 1.366302 1.316321 1.332675
4 1.282467 1.282444 1.247331 1.262208 1.241721 1.205022
4 1.202353 1.150429 1.125230 1.154051 1.132482 1.128185
4 1.152429 1.107187 1.054458 1.086000 1.023647 1.031643
4 1.030730 1.059104 1.001784 0.994230 1.004106 0.989123
4 1.022533 0.977241 0.975749 0.990564 0.990541 1.040666
4 1.022595 1.006643 0.981134 1.022983 0.985155 0.972350
4 1.023761 1.001360 1.006878 0.987351 0.989249 0.950825
4 0.933977 0.956700 0.918996 0.911710 0.907106 0.907529
4 0.893628 0.869425 0.877801 0.846287 0.894284 0.853653
4 0.862170 0.883316 0.871049 0.914160 0.867334 0.899551
4 0.899293 0.884826 0.922226 0.916812 0.942116 0.951489
4 0.985596 0.979159 0.955715 0.967462 1.003047 1.003768
4 1.012803 0.976416 1.017430 1.011488 1.041009 1.041601
4 1.071115 1.066898 1.085081 1.066266 1.063779 1.083196
4 1.099626 1.116216 1.166037 1.122513 1.109722 1.131443
4 1.136777 1.166776 1.128182 1.174145 1.185200 1.196134
4 1.185664 1.203933 1.184835 1.217378 1.225921 1.259435
4 1.229274 1.287037 1.313632 1.229931 1.300728 1.312964
4 1.283427 1.293012 1.302162 1.299155 1.299356 1.263453
4 1.336708 1.333741 1.283071 1.264741 1.315262 1.285684
4 1.303691 1.291512 1.318014 1.318620 1.282364 1.265994
4 1.261503 1.319234 1.272639 1.290358 1.287478 1.300497
4 1.249657 1.302219 1.307327 1.291583 1.275887 1.279912
4 1.280053 1.191364 1.300498 1.250252 1.212332 1.205352
4 1.211850 1.181012 1.118726 1.194283 1.123748 1.126497
4 1.065133 1.086924 1.033125 1.010352 0.947117 0.957262
4 0.912417 0.884309 0.816176 0.786302 0.799082 0.720648
4 0.708999 0.703415 0.667965 0.655006 0.624999 0.618803
4 0.584322 0.606603 0.574163 0.557356 0.562964 0.541906
4 0.524683 0.517475 0.532290 0.516905 0.510960 0.517098
4 0.488732 0.486439 0.483339 0.481170 0.472737 0.462989
4 0.457231 0.448532 0.434380 0.424414 0.423887 0.403785
4 0.390741 0.385830 0.374935 0.380325 0.346938 0.346835
4 0.334678 0.312599 0.316931 0.298486 0.285351 0.303001
4 0.289465 0.306179 0.305120 0.327787 0.333664 0.334098
4 0.343412 0.350623 0.366857 0.377915 0.385815 0.396698
4 0.404628 0.404839 0.396063 0.389902 0.411565 0.395139
4 0.397192 0.402621 0.399530 0.423133 0.440679 0.474727
4 0.506985 0.538836 0.595480 0.640662 0.692798 0.756016
4 0.813916 0.875335 0.943296 0.991330 1.084834 1.118393
4 1.220199 1.248510 1.306576 1.365000 1.411911 1.387374
4 1.460864 1.524148 1.473225 1.560746 1.498303 1.553697
4 1.601236 1.557443 1.586908 1.576438 1.681021 1.633803
4 1.646202 1.618234 1.610462 1.565062 1.602592 1.581671
4 1.627454 1.630177 1.634076 1.607995 1.555441 1.532208
4 1.583546 1.562599 1.488261 1.544313 1.548003 1.513864
4 1.494448 1.462868 1.430196 1.481188 1.433213 1.419069
4 1.457560 1.410317 1.383596 1.359108 1.377549 1.363800
4 1.324167 1.296552 1.210471 1.248441 1.224371 1.212337
4 1.215404 1.111696 1.146616 1.150173 1.118180 1.082467
4 1.119117 1.092678 1.053206 1.068957 1.068590 1.041366
4 1.048665 1.025617 1.008893 0.987497 1.004358 1.006320
4 1.017517 0.996514 1.007804 0.980036 0.984847 0.999786
4 0.982372 1.021369 1.015101 1.011609 1.012078 1.043905
4 0.990623 0.951241 0.992610 0.980104 0.962515 0.944509
4 0.945327 0.947257 0.924611 0.969064 0.897861 0.892821
4 0.858805 0.898506 0.853386 0.876115 0.878370 0.869392
4 0.912304 0.899945 0.907452 0.871143 0.910453 0.903648
4 0.913885 0.924645 0.896086 0.912161 0.943800 0.886355
4 0.973316 0.964217 0.961944 0.976403 0.961245 0.983849
4 1.022006 1.035243 1.072816 1.025124 1.021578 1.032917
4 1.030546 1.058521 1.076458 1.075569 1.108033 1.087037
4 1.092356 1.094937 1.079198 1.088236 1.104672 1.168982
4 1.167960 1.187427 1.133038 1.126491 1.165905 1.194792
4 1.211969 1.235044 1.226504 1.272362 1.233859 1.226232
4 1.216060 1.244707 1.281684 1.260244 1.313896 1.332018
4 1.238391 1.325891 1.247150 1.317433 1.339465 1.308969
4 1.273155 1.290265 1.297463 1.298205 1.296414 1.297804
4 1.305550 1.268395 1.293741 1.340040 1.291237 1.290460
4 1.330839 1.236614 1.334437 1.287097 1.307290 1.304373
4 1.324504 1.290378 1.276227 1.322769 1.223164 1.277943
4 1.235683 1.242094 1.301883 1.239467 1.233152 1.171564
4 1.182503 1.188414 1.174358 1.161077 1.126432 1.115608
4 1.089885 1.015931 1.028002 1.013527 0.978752 0.927822
4 0.931753

[CURVES]
;ID         X-Value      Y-Value     

[CONTROLS]

[RULES]

[ENERGY]
GLOBAL EFFICIENCY      75.0000
GLOBAL PRICE           0.0000
DEMAND CHARGE          0.0000

[EMITTERS]
;ID        Flow coefficient

[QUALITY]

[SOURCES]
;Node      Type       Quality    Pattern   

[REACTIONS]
;Type           Pipe/Tank               Coefficient

 ORDER BULK 1
 ORDER TANK 1
 ORDER WALL 1
 GLOBAL BULK 0.0000    
 GLOBAL WALL 0.0000    
 LIMITING POTENTIAL 0.0000    
 ROUGHNESS CORRELATION 0.0000    

[MIXING]
;Tank ID             Model Fraction

[TIMES]
DURATION             48:00:00
HYDRAULIC TIMESTEP   00:05:00
QUALITY TIMESTEP     00:05:00
PATTERN TIMESTEP     00:05:00
PATTERN START        00:00:00
REPORT TIMESTEP      00:05:00
REPORT START         00:00:00
START CLOCKTIME      00:00:00 AM
RULE TIMESTEP        00:06:00
STATISTIC            NONE      

[REPORT]
 Status             	No
 Summary            	No
 Page               	0
 Nodes					ALL
 Links					ALL
 Flow					Yes
 Headloss				No
 Velocity 				No
 Demand 				Yes
 Head 					Yes
 Pressure 				Yes
 Quality 				No
 State 					Yes

[OPTIONS]
UNITS                CMH                 
HEADLOSS             H-W                 
SPECIFIC GRAVITY     1
VISCOSITY            1
TRIALS               40
ACCURACY             0.001
CHECKFREQ            2
MAXCHECK             10
UNBALANCED           CONTINUE 10
DEMAND MULTIPLIER    1
DEMAND MODEL         PDA
MINIMUM PRESSURE     0.00
REQUIRED PRESSURE    0.10
PRESSURE EXPONENT    0.5
EMITTER EXPONENT     0.5
QUALITY              NONE                
DIFFUSIVITY          1
TOLERANCE            0.01

[COORDINATES]
;Node      X-Coord    Y-Coord   
1                4000.000000000       7000.000000000
2                5000.000000000       7000.000000000
3                4000.000000000       6000.000000000
4                5000.000000000       6000.000000000
5                4000.000000000       5000.000000000
6                5000.000000000       5000.000000000
7                6000.000000000       7000.000000000

[VERTICES]
;Link      X-Coord    Y-Coord   

[LABELS]

[BACKDROP]
DIMENSIONS    2900.000    4900.000    5100.000    7100.000
UNITS    METERS
OFFSET    0.00    0.00

[END]
