; Filename: D:/OneDrive/IHE_HI/015. Thesis/Github_repositories\Msc-Thesis/INP_FILES/Twoloops_Base_WNTR.inp
; WNTR: 0.3.1
; Created: 2023-03-01 15:16:43
[TITLE]

[JUNCTIONS]
;ID                      Elevation       Demand Pattern                 
 1                                160             100 14                         ;
 2                                150             100 14                         ;
 3                                150             270 14                         ;
 4                                155             120 14                         ;
 5                                160             200 14                         ;
 6                                165             330 14                         ;

[RESERVOIRS]
;ID                                   Head                  Pattern
 7                                210                            ;

[TANKS]
;ID                              Elevation           Init Level            Min Level            Max Level             Diameter           Min Volume Volume Curve         Overflow            

[PIPES]
;ID                   Node1                Node2                              Length             Diameter            Roughness           Minor Loss               Status
 1                    2                    1                               1000             200             130               0                 Open   ;
 2                    1                    3                               1000             150             130               0                 Open   ;
 3                    2                    4                               1000             450             130               0                 Open   ;
 4                    4                    3                               1000             150             130               0                 Open   ;
 5                    5                    3                               1000             150             130               0                 Open   ;
 6                    4                    6                               1000             400             130               0                 Open   ;
 7                    6                    5                               1000             250             130               0                 Open   ;
 8                    7                    2                               1000             450             130               0                 Open   ;

[PUMPS]
;ID                   Node1                Node2                Properties          

[VALVES]
;ID                   Node1                Node2                            Diameter Type              Setting           Minor Loss

[TAGS]
;type      name       tag       

[DEMANDS]
;ID        Demand     Pattern   

[STATUS]
;ID        Setting   
[PATTERNS]
;ID        Multipliers

14 0.931753 0.716621 0.611745 0.563228 0.518676 0.448847
14 0.407601 0.328753 0.299381 0.351061 0.401152 0.414147
14 0.507610 0.819019 1.210653 1.476723 1.647811 1.621055
14 1.610018 1.532990 1.423410 1.427156 1.322475 1.175198
14 1.149935 1.002117 1.000915 0.999782 1.030656 0.981731
14 0.902789 0.888311 0.884020 0.907297 0.993042 1.055255
14 1.127066 1.175008 1.190704 1.250764 1.272738 1.269487
14 1.255637 1.353574 1.286749 1.258791 1.169933 1.096877
14 0.870950 0.707907 0.589254 0.543240 0.494892 0.446986
14 0.399775 0.332576 0.300399 0.350308 0.394925 0.399522
14 0.493275 0.811156 1.180484 1.416287 1.605678 1.614654
14 1.547834 1.574067 1.472781 1.410204 1.318956 1.195982
14 1.125067 1.006649 1.008047 0.989794 0.982584 0.942663
14 0.894392 0.882634 0.879027 0.961743 1.009313 1.019644
14 1.132742 1.190923 1.228291 1.253844 1.272160 1.334150
14 1.289517 1.334597 1.305415 1.294723 1.208553 1.095345
14 0.900189 0.736324 0.601523 0.543402 0.518832 0.445455
14 0.389836 0.336144 0.292961 0.361737 0.396691 0.396426
14 0.519229 0.841224 1.244821 1.493516 1.572441 1.689915
14 1.591424 1.584662 1.528418 1.404374 1.315966 1.214907
14 1.108281 1.009444 1.005965 1.030161 0.986109 0.950850
14 0.892167 0.914251 0.912101 0.952422 0.984602 1.063311
14 1.085165 1.148146 1.184740 1.275396 1.314991 1.301152
14 1.310296 1.274267 1.261227 1.281078 1.204000 1.093800
14 0.942897 0.724361 0.589046 0.551111 0.486841 0.453569
14 0.399454 0.341050 0.295531 0.342447 0.399212 0.397102
14 0.511266 0.799384 1.172461 1.454089 1.584063 1.690549
14 1.630381 1.562362 1.463237 1.432531 1.273994 1.156050
14 1.126137 1.038682 1.018417 1.009936 1.017137 0.941287
14 0.881384 0.893662 0.885539 0.931694 0.990889 1.052333
14 1.092212 1.115863 1.184553 1.202415 1.316256 1.264730
14 1.271286 1.304106 1.280771 1.309108 1.168971 1.085851
14 0.899293 0.694323 0.606279 0.537219 0.507718 0.465335
14 0.417306 0.338565 0.297785 0.346535 0.408797 0.407716
14 0.506401 0.790609 1.199416 1.445281 1.608958 1.624538
14 1.629126 1.569526 1.523590 1.395600 1.275444 1.183122
14 1.099626 1.039966 1.045186 1.002691 0.980881 0.947105
14 0.891655 0.890133 0.872266 0.945918 1.003130 1.056850
14 1.086859 1.141956 1.165823 1.245957 1.285886 1.317467
14 1.269939 1.323101 1.338857 1.217344 1.210230 1.094705
14 0.888526 0.705283 0.598405 0.535858 0.496910 0.442450
14 0.409219 0.336871 0.295120 0.337990 0.404169 0.397807
14 0.501420 0.811813 1.216597 1.487317 1.576781 1.582699
14 1.549346 1.578671 1.464334 1.394461 1.284496 1.191651
14 1.057402 1.036036 1.010478 1.005314 0.993782 0.955562
14 0.907183 0.832754 0.935206 0.952093 0.986952 1.043740
14 1.110862 1.144751 1.151264 1.310330 1.297126 1.333254
14 1.282007 1.342777 1.307445 1.285381 1.174914 1.106245
14 0.912417 0.729442 0.592463 0.533882 0.523039 0.448090
14 0.398912 0.337249 0.300586 0.352262 0.396804 0.405420
14 0.486935 0.844126 1.197164 1.446978 1.621324 1.612735
14 1.557304 1.517624 1.520813 1.404245 1.296524 1.218618
14 1.075210 1.017056 0.992302 1.005433 0.999157 0.948232
14 0.898891 0.879751 0.887047 0.929362 1.005490 1.033221
14 1.074538 1.140249 1.196216 1.315168 1.281678 1.331244
14 1.319427 1.271769 1.320105 1.239849 1.136180 1.093180
14 0.931753

[CURVES]
;ID         X-Value      Y-Value     

[CONTROLS]

[RULES]

[ENERGY]
GLOBAL EFFICIENCY      75.0000
GLOBAL PRICE           0.0000
DEMAND CHARGE          0.0000

[EMITTERS]
;ID        Flow coefficient

[QUALITY]

[SOURCES]
;Node      Type       Quality    Pattern   

[REACTIONS]
;Type           Pipe/Tank               Coefficient

 ORDER BULK 1
 ORDER TANK 1
 ORDER WALL 1
 GLOBAL BULK 0.0000    
 GLOBAL WALL 0.0000    
 LIMITING POTENTIAL 0.0000    
 ROUGHNESS CORRELATION 0.0000    

[MIXING]
;Tank ID             Model Fraction

[TIMES]
DURATION             168:00:00
HYDRAULIC TIMESTEP   00:30:00
QUALITY TIMESTEP     00:05:00
PATTERN TIMESTEP     00:30:00
PATTERN START        00:00:00
REPORT TIMESTEP      00:30:00
REPORT START         00:00:00
START CLOCKTIME      00:00:00 AM
RULE TIMESTEP        00:06:00
STATISTIC            NONE      

[REPORT]
 Status             	No
 Summary            	No
 Page               	0
 Nodes					ALL
 Links					ALL
 Flow					Yes
 Headloss				No
 Velocity 				No
 Demand 				Yes
 Head 					Yes
 Pressure 				Yes
 Quality 				No
 State 					Yes

[OPTIONS]
UNITS                CMH                 
HEADLOSS             H-W                 
SPECIFIC GRAVITY     1
VISCOSITY            1
TRIALS               40
ACCURACY             0.001
CHECKFREQ            2
MAXCHECK             10
UNBALANCED           CONTINUE 10
DEMAND MULTIPLIER    1
DEMAND MODEL         PDA
MINIMUM PRESSURE     0.00
REQUIRED PRESSURE    0.10
PRESSURE EXPONENT    0.5
EMITTER EXPONENT     0.5
QUALITY              NONE                
DIFFUSIVITY          1
TOLERANCE            0.01

[COORDINATES]
;Node      X-Coord    Y-Coord   
1                4000.000000000       7000.000000000
2                5000.000000000       7000.000000000
3                4000.000000000       6000.000000000
4                5000.000000000       6000.000000000
5                4000.000000000       5000.000000000
6                5000.000000000       5000.000000000
7                6000.000000000       7000.000000000

[VERTICES]
;Link      X-Coord    Y-Coord   

[LABELS]

[BACKDROP]
DIMENSIONS    2900.000    4900.000    5100.000    7100.000
UNITS    METERS
OFFSET    0.00    0.00

[END]
