; Filename: D:/OneDrive/IHE_HI/015. Thesis/Github_repositories\Msc-Thesis/INP_FILES/Twoloops_Base_WNTR.inp
; WNTR: 0.3.1
; Created: 2023-03-01 15:16:34
[TITLE]

[JUNCTIONS]
;ID                      Elevation       Demand Pattern                 
 1                                160             100 8                          ;
 2                                150             100 8                          ;
 3                                150             270 8                          ;
 4                                155             120 8                          ;
 5                                160             200 8                          ;
 6                                165             330 8                          ;

[RESERVOIRS]
;ID                                   Head                  Pattern
 7                                210                            ;

[TANKS]
;ID                              Elevation           Init Level            Min Level            Max Level             Diameter           Min Volume Volume Curve         Overflow            

[PIPES]
;ID                   Node1                Node2                              Length             Diameter            Roughness           Minor Loss               Status
 1                    2                    1                               1000             200             130               0                 Open   ;
 2                    1                    3                               1000             150             130               0                 Open   ;
 3                    2                    4                               1000             450             130               0                 Open   ;
 4                    4                    3                               1000             150             130               0                 Open   ;
 5                    5                    3                               1000             150             130               0                 Open   ;
 6                    4                    6                               1000             400             130               0                 Open   ;
 7                    6                    5                               1000             250             130               0                 Open   ;
 8                    7                    2                               1000             450             130               0                 Open   ;

[PUMPS]
;ID                   Node1                Node2                Properties          

[VALVES]
;ID                   Node1                Node2                            Diameter Type              Setting           Minor Loss

[TAGS]
;type      name       tag       

[DEMANDS]
;ID        Demand     Pattern   

[STATUS]
;ID        Setting   
[PATTERNS]
;ID        Multipliers

8 0.931753 0.868766 0.842738 0.829523 0.792415 0.721867
8 0.724441 0.685695 0.665286 0.652774 0.631847 0.632122
8 0.609132 0.588561 0.580632 0.568813 0.572161 0.544701
8 0.542444 0.522714 0.498199 0.525339 0.521188 0.498674
8 0.522698 0.479294 0.487535 0.478466 0.487640 0.479345
8 0.459214 0.452897 0.432897 0.414337 0.418639 0.412396
8 0.409842 0.397592 0.373208 0.361701 0.344518 0.330745
8 0.318498 0.332707 0.308923 0.303047 0.293828 0.304025
8 0.290317 0.302151 0.303812 0.319712 0.323345 0.329194
8 0.348006 0.362427 0.370613 0.382345 0.383719 0.392590
8 0.394620 0.399136 0.395669 0.387585 0.402053 0.397444
8 0.389321 0.410627 0.407294 0.427661 0.451435 0.470119
8 0.511394 0.525489 0.589289 0.627620 0.680945 0.744867
8 0.811940 0.883294 0.926274 1.032484 1.088830 1.105998
8 1.235718 1.302348 1.336057 1.346787 1.364124 1.462575
8 1.455105 1.534400 1.531370 1.579002 1.580270 1.608548
8 1.600336 1.668351 1.622924 1.637309 1.688670 1.584559
8 1.586373 1.656987 1.583872 1.680221 1.598665 1.582121
8 1.661534 1.640997 1.646807 1.609686 1.547174 1.627053
8 1.551272 1.576444 1.572061 1.528657 1.541897 1.539971
8 1.511293 1.454192 1.481590 1.496528 1.422096 1.421459
8 1.396481 1.442727 1.391877 1.366302 1.316321 1.332675
8 1.282467 1.282444 1.247331 1.262208 1.241721 1.205022
8 1.202353 1.150429 1.125230 1.154051 1.132482 1.128185
8 1.152429 1.107187 1.054458 1.086000 1.023647 1.031643
8 1.030730 1.059104 1.001784 0.994230 1.004106 0.989123
8 1.022533 0.977241 0.975749 0.990564 0.990541 1.040666
8 1.022595 1.006643 0.981134 1.022983 0.985155 0.972350
8 1.023761 1.001360 1.006878 0.987351 0.989249 0.950825
8 0.933977 0.956700 0.918996 0.911710 0.907106 0.907529
8 0.893628 0.869425 0.877801 0.846287 0.894284 0.853653
8 0.862170 0.883316 0.871049 0.914160 0.867334 0.899551
8 0.899293 0.884826 0.922226 0.916812 0.942116 0.951489
8 0.985596 0.979159 0.955715 0.967462 1.003047 1.003768
8 1.012803 0.976416 1.017430 1.011488 1.041009 1.041601
8 1.071115 1.066898 1.085081 1.066266 1.063779 1.083196
8 1.099626 1.116216 1.166037 1.122513 1.109722 1.131443
8 1.136777 1.166776 1.128182 1.174145 1.185200 1.196134
8 1.185664 1.203933 1.184835 1.217378 1.225921 1.259435
8 1.229274 1.287037 1.313632 1.229931 1.300728 1.312964
8 1.283427 1.293012 1.302162 1.299155 1.299356 1.263453
8 1.336708 1.333741 1.283071 1.264741 1.315262 1.285684
8 1.303691 1.291512 1.318014 1.318620 1.282364 1.265994
8 1.261503 1.319234 1.272639 1.290358 1.287478 1.300497
8 1.249657 1.302219 1.307327 1.291583 1.275887 1.279912
8 1.280053 1.191364 1.300498 1.250252 1.212332 1.205352
8 1.211850 1.181012 1.118726 1.194283 1.123748 1.126497
8 1.065133 1.086924 1.033125 1.010352 0.947117 0.957262
8 0.912417 0.884309 0.816176 0.786302 0.799082 0.720648
8 0.708999 0.703415 0.667965 0.655006 0.624999 0.618803
8 0.584322 0.606603 0.574163 0.557356 0.562964 0.541906
8 0.524683 0.517475 0.532290 0.516905 0.510960 0.517098
8 0.488732 0.486439 0.483339 0.481170 0.472737 0.462989
8 0.457231 0.448532 0.434380 0.424414 0.423887 0.403785
8 0.390741 0.385830 0.374935 0.380325 0.346938 0.346835
8 0.334678 0.312599 0.316931 0.298486 0.285351 0.303001
8 0.289465 0.306179 0.305120 0.327787 0.333664 0.334098
8 0.343412 0.350623 0.366857 0.377915 0.385815 0.396698
8 0.404628 0.404839 0.396063 0.389902 0.411565 0.395139
8 0.397192 0.402621 0.399530 0.423133 0.440679 0.474727
8 0.506985 0.538836 0.595480 0.640662 0.692798 0.756016
8 0.813916 0.875335 0.943296 0.991330 1.084834 1.118393
8 1.220199 1.248510 1.306576 1.365000 1.411911 1.387374
8 1.460864 1.524148 1.473225 1.560746 1.498303 1.553697
8 1.601236 1.557443 1.586908 1.576438 1.681021 1.633803
8 1.646202 1.618234 1.610462 1.565062 1.602592 1.581671
8 1.627454 1.630177 1.634076 1.607995 1.555441 1.532208
8 1.583546 1.562599 1.488261 1.544313 1.548003 1.513864
8 1.494448 1.462868 1.430196 1.481188 1.433213 1.419069
8 1.457560 1.410317 1.383596 1.359108 1.377549 1.363800
8 1.324167 1.296552 1.210471 1.248441 1.224371 1.212337
8 1.215404 1.111696 1.146616 1.150173 1.118180 1.082467
8 1.119117 1.092678 1.053206 1.068957 1.068590 1.041366
8 1.048665 1.025617 1.008893 0.987497 1.004358 1.006320
8 1.017517 0.996514 1.007804 0.980036 0.984847 0.999786
8 0.982372 1.021369 1.015101 1.011609 1.012078 1.043905
8 0.990623 0.951241 0.992610 0.980104 0.962515 0.944509
8 0.945327 0.947257 0.924611 0.969064 0.897861 0.892821
8 0.858805 0.898506 0.853386 0.876115 0.878370 0.869392
8 0.912304 0.899945 0.907452 0.871143 0.910453 0.903648
8 0.913885 0.924645 0.896086 0.912161 0.943800 0.886355
8 0.973316 0.964217 0.961944 0.976403 0.961245 0.983849
8 1.022006 1.035243 1.072816 1.025124 1.021578 1.032917
8 1.030546 1.058521 1.076458 1.075569 1.108033 1.087037
8 1.092356 1.094937 1.079198 1.088236 1.104672 1.168982
8 1.167960 1.187427 1.133038 1.126491 1.165905 1.194792
8 1.211969 1.235044 1.226504 1.272362 1.233859 1.226232
8 1.216060 1.244707 1.281684 1.260244 1.313896 1.332018
8 1.238391 1.325891 1.247150 1.317433 1.339465 1.308969
8 1.273155 1.290265 1.297463 1.298205 1.296414 1.297804
8 1.305550 1.268395 1.293741 1.340040 1.291237 1.290460
8 1.330839 1.236614 1.334437 1.287097 1.307290 1.304373
8 1.324504 1.290378 1.276227 1.322769 1.223164 1.277943
8 1.235683 1.242094 1.301883 1.239467 1.233152 1.171564
8 1.182503 1.188414 1.174358 1.161077 1.126432 1.115608
8 1.089885 1.015931 1.028002 1.013527 0.978752 0.927822
8 0.885499 0.842592 0.824392 0.811932 0.734064 0.726540
8 0.694725 0.698574 0.659271 0.641363 0.627299 0.619728
8 0.595291 0.551363 0.581777 0.570004 0.553121 0.535087
8 0.542861 0.535832 0.520070 0.516312 0.502799 0.504379
8 0.484496 0.497773 0.477889 0.482551 0.459831 0.460165
8 0.456784 0.434567 0.441738 0.428157 0.406882 0.400395
8 0.404841 0.395209 0.375129 0.366847 0.353473 0.342657
8 0.338232 0.310562 0.316327 0.303389 0.300028 0.297561
8 0.297749 0.296001 0.310487 0.327859 0.326316 0.337146
8 0.343416 0.358504 0.373571 0.377232 0.385122 0.398649
8 0.392656 0.404058 0.408809 0.412365 0.399907 0.411623
8 0.410768 0.398755 0.404716 0.424611 0.454104 0.468231
8 0.493993 0.555522 0.587939 0.606802 0.697411 0.761429
8 0.820718 0.890238 0.947098 0.987469 1.070785 1.119477
8 1.177614 1.223073 1.317097 1.354297 1.381481 1.413766
8 1.466247 1.530109 1.463888 1.560424 1.551961 1.526350
8 1.537738 1.581410 1.625922 1.637019 1.596816 1.661577
8 1.674058 1.638349 1.602742 1.653722 1.636354 1.633995
8 1.578993 1.503449 1.654720 1.530099 1.573164 1.641806
8 1.569943 1.580999 1.496474 1.478893 1.506962 1.545068
8 1.489613 1.463255 1.478636 1.489400 1.400453 1.391208
8 1.386520 1.421729 1.379861 1.413050 1.361946 1.317530
8 1.332892 1.287049 1.245586 1.262296 1.210469 1.203035
8 1.224583 1.173759 1.141192 1.133374 1.151785 1.101725
8 1.091489 1.075570 1.078018 1.054079 1.017635 1.022780
8 1.012884 1.049478 1.033460 1.022813 0.995919 0.986069
8 0.989850 0.977801 1.048545 0.954439 1.011793 0.976255
8 1.001445 0.985027 0.982096 0.983053 1.040549 1.000680
8 0.984686 1.006113 0.988874 0.995226 0.937097 0.969219
8 0.968443 0.912469 0.942376 0.955820 0.915175 0.922115
8 0.912070 0.881359 0.889955 0.857914 0.875267 0.886597
8 0.894394 0.882830 0.896857 0.867233 0.888545 0.895117
8 0.933293 0.902111 0.903566 0.920361 0.910739 0.939681
8 0.937825 0.919500 0.961696 0.965942 0.949419 0.989453
8 1.029787 1.019569 1.030383 0.999098 1.045087 1.046749
8 1.063096 1.069133 1.039228 1.075415 1.067824 1.091059
8 1.080257 1.136895 1.096461 1.103264 1.133040 1.114784
8 1.137670 1.136465 1.196907 1.191091 1.180144 1.181289
8 1.222582 1.219493 1.231718 1.228865 1.197530 1.246232
8 1.244971 1.283587 1.301319 1.266166 1.301815 1.340401
8 1.282639 1.347211 1.283368 1.307539 1.307145 1.307573
8 1.284705 1.290115 1.286870 1.311475 1.310289 1.358567
8 1.335646 1.286559 1.308480 1.326485 1.302044 1.300204
8 1.304091 1.325930 1.281517 1.295080 1.315278 1.309975
8 1.306229 1.287726 1.318936 1.344327 1.294305 1.272488
8 1.289112 1.247705 1.232775 1.241388 1.164907 1.186813
8 1.191649 1.151719 1.142002 1.136908 1.089230 1.095006
8 1.068520 1.055057 1.050954 1.001641 0.967747 0.936482
8 0.931753

[CURVES]
;ID         X-Value      Y-Value     

[CONTROLS]

[RULES]

[ENERGY]
GLOBAL EFFICIENCY      75.0000
GLOBAL PRICE           0.0000
DEMAND CHARGE          0.0000

[EMITTERS]
;ID        Flow coefficient

[QUALITY]

[SOURCES]
;Node      Type       Quality    Pattern   

[REACTIONS]
;Type           Pipe/Tank               Coefficient

 ORDER BULK 1
 ORDER TANK 1
 ORDER WALL 1
 GLOBAL BULK 0.0000    
 GLOBAL WALL 0.0000    
 LIMITING POTENTIAL 0.0000    
 ROUGHNESS CORRELATION 0.0000    

[MIXING]
;Tank ID             Model Fraction

[TIMES]
DURATION             72:00:00
HYDRAULIC TIMESTEP   00:05:00
QUALITY TIMESTEP     00:05:00
PATTERN TIMESTEP     00:05:00
PATTERN START        00:00:00
REPORT TIMESTEP      00:05:00
REPORT START         00:00:00
START CLOCKTIME      00:00:00 AM
RULE TIMESTEP        00:06:00
STATISTIC            NONE      

[REPORT]
 Status             	No
 Summary            	No
 Page               	0
 Nodes					ALL
 Links					ALL
 Flow					Yes
 Headloss				No
 Velocity 				No
 Demand 				Yes
 Head 					Yes
 Pressure 				Yes
 Quality 				No
 State 					Yes

[OPTIONS]
UNITS                CMH                 
HEADLOSS             H-W                 
SPECIFIC GRAVITY     1
VISCOSITY            1
TRIALS               40
ACCURACY             0.001
CHECKFREQ            2
MAXCHECK             10
UNBALANCED           CONTINUE 10
DEMAND MULTIPLIER    1
DEMAND MODEL         PDA
MINIMUM PRESSURE     0.00
REQUIRED PRESSURE    0.10
PRESSURE EXPONENT    0.5
EMITTER EXPONENT     0.5
QUALITY              NONE                
DIFFUSIVITY          1
TOLERANCE            0.01

[COORDINATES]
;Node      X-Coord    Y-Coord   
1                4000.000000000       7000.000000000
2                5000.000000000       7000.000000000
3                4000.000000000       6000.000000000
4                5000.000000000       6000.000000000
5                4000.000000000       5000.000000000
6                5000.000000000       5000.000000000
7                6000.000000000       7000.000000000

[VERTICES]
;Link      X-Coord    Y-Coord   

[LABELS]

[BACKDROP]
DIMENSIONS    2900.000    4900.000    5100.000    7100.000
UNITS    METERS
OFFSET    0.00    0.00

[END]
