; Filename: D:/OneDrive/IHE_HI/015. Thesis/Github_repositories\Msc-Thesis/INP_FILES/Twoloops_Base_WNTR.inp
; WNTR: 0.4.2
; Created: 2023-03-07 09:39:08
[TITLE]

[JUNCTIONS]
;ID                      Elevation       Demand Pattern                 
 1                                160             100 65                         ;
 2                                150             100 65                         ;
 3                                150             270 65                         ;
 4                                155             120 65                         ;
 5                                160             200 65                         ;
 6                                165             330 65                         ;

[RESERVOIRS]
;ID                                   Head                  Pattern
 7                                210                            ;

[TANKS]
;ID                              Elevation           Init Level            Min Level            Max Level             Diameter           Min Volume Volume Curve         Overflow            

[PIPES]
;ID                   Node1                Node2                              Length             Diameter            Roughness           Minor Loss               Status
 1                    2                    1                               1000             200             130               0                 Open   ;
 2                    1                    3                               1000             150             130               0                 Open   ;
 3                    2                    4                               1000             450             130               0                 Open   ;
 4                    4                    3                               1000             150             130               0                 Open   ;
 5                    5                    3                               1000             150             130               0                 Open   ;
 6                    4                    6                               1000             400             130               0                 Open   ;
 7                    6                    5                               1000             250             130               0                 Open   ;
 8                    7                    2                               1000             450             130               0                 Open   ;

[PUMPS]
;ID                   Node1                Node2                Properties          

[VALVES]
;ID                   Node1                Node2                            Diameter Type              Setting           Minor Loss

[TAGS]
;type      name       tag       

[DEMANDS]
;ID        Demand     Pattern   

[STATUS]
;ID        Setting   

[PATTERNS]
;ID        Multipliers

65 0.995259 0.882561 0.875098 0.900688 0.849479 0.693085
65 0.751459 0.681531 0.662533 0.663408 0.635477 0.667854
65 0.627397 0.591419 0.590851 0.576355 0.605363 0.540213
65 0.549194 0.504546 0.444586 0.538896 0.538903 0.483647
65 0.568093 0.450576 0.488426 0.474870 0.516648 0.506714
65 0.462051 0.459696 0.417247 0.380154 0.412772 0.414967
65 0.429527 0.416265 0.367380 0.357300 0.329758 0.311409
65 0.295992 0.357693 0.302560 0.297689 0.278726 0.313336
65 0.270950 0.299569 0.292731 0.324622 0.316670 0.313272
65 0.347613 0.368583 0.371598 0.386943 0.373858 0.386852
65 0.383861 0.393354 0.382587 0.359865 0.404896 0.391005
65 0.363078 0.418159 0.392239 0.428549 0.464412 0.472538
65 0.534182 0.498876 0.598697 0.610189 0.656806 0.727418
65 0.801758 0.885276 0.882074 1.069029 1.108924 1.035880
65 1.307154 1.397504 1.397603 1.337059 1.304420 1.522990
65 1.431448 1.607639 1.544075 1.639504 1.602637 1.653377
65 1.601008 1.783419 1.631142 1.663426 1.811254 1.496768
65 1.503653 1.720016 1.507763 1.805961 1.571995 1.534101
65 1.784602 1.735383 1.765398 1.666986 1.492941 1.746790
65 1.534552 1.626246 1.630520 1.519149 1.579311 1.595749
65 1.533878 1.388805 1.499160 1.573875 1.382030 1.412926
65 1.371960 1.545640 1.428811 1.388390 1.275149 1.361114
65 1.247402 1.284076 1.215198 1.295904 1.270033 1.194940
65 1.221249 1.099005 1.056046 1.174157 1.140007 1.156483
65 1.257288 1.148240 1.015241 1.133463 0.968309 1.012418
65 1.027913 1.129284 0.971490 0.960811 1.000144 0.962519
65 1.067598 0.934095 0.929911 0.973064 0.970610 1.118001
65 1.060706 1.010163 0.931833 1.056959 0.944936 0.910352
65 1.071282 1.013975 1.043295 0.999859 1.022582 0.925738
65 0.894523 0.982433 0.888980 0.886212 0.890426 0.908163
65 0.880884 0.820257 0.854907 0.767519 0.916373 0.797138
65 0.823223 0.885157 0.844894 0.968894 0.821290 0.909109
65 0.897879 0.842495 0.941329 0.910499 0.970758 0.982324
65 1.067342 1.030143 0.941497 0.958153 1.046218 1.029737
65 1.038408 0.911153 1.016439 0.981181 1.052600 1.037504
65 1.109414 1.080350 1.118682 1.046185 1.022818 1.065283
65 1.098877 1.133017 1.266859 1.120614 1.066462 1.115676
65 1.115499 1.189033 1.056439 1.177112 1.192597 1.207191
65 1.156993 1.192421 1.115365 1.193117 1.199008 1.280221
65 1.171078 1.326636 1.389881 1.123696 1.322718 1.348040
65 1.250280 1.272300 1.295222 1.283587 1.283196 1.175813
65 1.396933 1.390121 1.240637 1.188313 1.342393 1.255728
65 1.311072 1.274909 1.353975 1.354762 1.244597 1.193948
65 1.179017 1.351055 1.210645 1.263931 1.256398 1.297759
65 1.148970 1.312016 1.334439 1.296143 1.259921 1.284889
65 1.300323 1.051480 1.398414 1.269610 1.180276 1.186354
65 1.235549 1.175514 1.024008 1.288996 1.118768 1.171547
65 1.035234 1.151730 1.044890 1.034662 0.906673 1.002541
65 0.937250 0.929190 0.795410 0.771026 0.869479 0.689430
65 0.705133 0.734692 0.670571 0.670104 0.614932 0.627895
65 0.552965 0.645545 0.571443 0.541983 0.577773 0.531826
65 0.495913 0.488827 0.546860 0.513595 0.508220 0.538920
65 0.466195 0.472011 0.475841 0.482983 0.471938 0.457645
65 0.456103 0.446603 0.421694 0.410384 0.428516 0.389135
65 0.372223 0.380980 0.372563 0.413174 0.337018 0.359679
65 0.344534 0.297371 0.326584 0.284009 0.253294 0.310261
65 0.268394 0.311652 0.296656 0.348847 0.347627 0.327984
65 0.333832 0.333172 0.360329 0.373653 0.380145 0.399177
65 0.413885 0.410462 0.383769 0.366814 0.433432 0.384090
65 0.386691 0.394138 0.368948 0.414965 0.432142 0.486363
65 0.520954 0.538917 0.617269 0.649315 0.692363 0.760867
65 0.807685 0.861400 0.933139 0.945569 1.096935 1.073064
65 1.260597 1.235989 1.309161 1.391700 1.447782 1.297385
65 1.448723 1.576880 1.369639 1.584738 1.356736 1.488824
65 1.603709 1.450697 1.523093 1.480812 1.788306 1.644500
65 1.683138 1.603756 1.587532 1.460486 1.583774 1.532748
65 1.682361 1.702925 1.727204 1.661911 1.517743 1.462255
65 1.631374 1.584712 1.379119 1.566117 1.597630 1.517428
65 1.483345 1.414833 1.344977 1.527857 1.415382 1.405754
65 1.555198 1.448410 1.403968 1.366809 1.458833 1.454488
65 1.372501 1.326400 1.104619 1.254605 1.217982 1.216884
65 1.260403 0.982806 1.120204 1.162524 1.097103 1.019327
65 1.157352 1.104712 1.011485 1.082334 1.103140 1.041586
65 1.081717 1.028823 0.992816 0.940613 1.000900 1.014110
65 1.052550 0.991915 1.026076 0.941478 0.953526 0.995361
65 0.940038 1.054339 1.033733 1.022840 1.025706 1.125018
65 0.971868 0.863619 1.000492 0.978118 0.942382 0.906791
65 0.928573 0.954103 0.905826 1.058272 0.862689 0.864040
65 0.776415 0.907500 0.781662 0.857004 0.868630 0.844356
65 0.973627 0.935043 0.954103 0.839842 0.950647 0.921401
65 0.941656 0.961952 0.862910 0.896547 0.975813 0.786921
65 1.030503 0.985317 0.960184 0.984977 0.920811 0.969980
65 1.066017 1.087634 1.182598 1.022089 0.994309 1.011449
65 0.987709 1.055219 1.092813 1.074094 1.155582 1.076805
65 1.077068 1.069179 1.006342 1.017782 1.051310 1.228292
65 1.209050 1.250986 1.071007 1.034149 1.134711 1.203165
65 1.235906 1.285753 1.240372 1.358067 1.222823 1.180613
65 1.131436 1.199646 1.294037 1.214633 1.362222 1.405201
65 1.115172 1.370939 1.130186 1.338423 1.403523 1.312360
65 1.206273 1.259693 1.283813 1.288707 1.285850 1.292087
65 1.316651 1.205558 1.281156 1.419023 1.271216 1.267345
65 1.387024 1.103197 1.396041 1.254147 1.315835 1.309389
65 1.373513 1.276492 1.241139 1.389702 1.101752 1.278982
65 1.167212 1.203671 1.402570 1.237254 1.242736 1.084991
65 1.147509 1.197721 1.190906 1.189378 1.126821 1.138880
65 1.109490 0.938751 1.029523 1.044188 1.001577 0.914219
65 0.856496 0.804038 0.820059 0.847916 0.674426 0.707106
65 0.662312 0.720169 0.644490 0.629174 0.621831 0.630672
65 0.585874 0.479823 0.594285 0.579927 0.548242 0.511371
65 0.550446 0.543899 0.510199 0.511816 0.483737 0.500763
65 0.453487 0.506014 0.459489 0.487125 0.433223 0.449174
65 0.454760 0.404708 0.443767 0.421614 0.377501 0.378964
65 0.414523 0.409117 0.373144 0.372739 0.356623 0.347145
65 0.355194 0.291260 0.324772 0.298718 0.297324 0.293941
65 0.293247 0.281117 0.312755 0.349064 0.325582 0.337128
65 0.333843 0.356815 0.380473 0.371603 0.378067 0.405028
65 0.377968 0.408118 0.422007 0.434202 0.398459 0.433541
65 0.427419 0.382542 0.384507 0.419400 0.472417 0.466875
65 0.481980 0.588976 0.594648 0.547735 0.706203 0.777105
65 0.828091 0.906110 0.944546 0.933983 1.054789 1.076317
65 1.132843 1.159678 1.340722 1.359590 1.356492 1.376562
65 1.464872 1.594765 1.341630 1.583771 1.517710 1.406782
65 1.413213 1.522597 1.640136 1.662556 1.535693 1.727824
65 1.766708 1.664102 1.564374 1.726465 1.685062 1.689722
65 1.536979 1.322740 1.789138 1.428225 1.570911 1.791048
65 1.590566 1.639911 1.403756 1.369857 1.474505 1.611040
65 1.468838 1.415994 1.490299 1.552492 1.317101 1.322172
65 1.342079 1.482647 1.392761 1.528634 1.412024 1.315680
65 1.398676 1.297892 1.209962 1.296169 1.176278 1.188979
65 1.287940 1.168994 1.103932 1.112126 1.197918 1.077103
65 1.074467 1.053390 1.085920 1.037699 0.950273 0.985829
65 0.974373 1.100405 1.066518 1.046561 0.975581 0.953358
65 0.969549 0.935776 1.148300 0.864688 1.034365 0.924771
65 0.997256 0.945314 0.934718 0.937172 1.111118 0.995343
65 0.954058 1.028234 0.989283 1.023483 0.866128 0.980918
65 0.997920 0.849738 0.959121 1.018542 0.914631 0.951923
65 0.936211 0.856059 0.891369 0.802401 0.859323 0.895969
65 0.919894 0.883699 0.922320 0.828111 0.884923 0.895807
65 0.999878 0.894350 0.885348 0.921147 0.876629 0.946898
65 0.924030 0.851167 0.959440 0.953594 0.885332 0.986792
65 1.089361 1.040609 1.055299 0.944008 1.064835 1.052946
65 1.085358 1.087055 0.981123 1.073632 1.034955 1.088871
65 1.040772 1.195054 1.058129 1.062866 1.136415 1.065697
65 1.118180 1.098099 1.262614 1.227950 1.177428 1.162658
65 1.267746 1.239100 1.256014 1.227577 1.113836 1.240613
65 1.218168 1.316284 1.352944 1.232398 1.325978 1.430349
65 1.247918 1.434898 1.238842 1.308739 1.306562 1.308175
65 1.240925 1.259242 1.252034 1.328515 1.327473 1.474375
65 1.406937 1.260051 1.325374 1.378357 1.303637 1.296577
65 1.306778 1.371144 1.237281 1.278099 1.339797 1.326193
65 1.318687 1.268536 1.369266 1.454375 1.315176 1.262617
65 1.327501 1.220505 1.195244 1.243016 1.038003 1.130738
65 1.174947 1.087635 1.093836 1.116871 1.015216 1.077075
65 1.045394 1.056129 1.098379 1.008529 0.968562 0.940200
65 0.912279 0.809291 0.820866 0.808648 0.701057 0.774498
65 0.757059 0.661722 0.657009 0.613342 0.656470 0.575145
65 0.591991 0.556874 0.577283 0.504214 0.599776 0.515290
65 0.541005 0.525017 0.500999 0.490938 0.541115 0.490223
65 0.508135 0.469913 0.468175 0.493872 0.499548 0.460762
65 0.418738 0.503382 0.418073 0.391524 0.487197 0.401145
65 0.364918 0.372334 0.384416 0.368056 0.333914 0.377642
65 0.319431 0.297452 0.330094 0.330105 0.286597 0.274199
65 0.318548 0.266167 0.286585 0.335673 0.325598 0.331816
65 0.355573 0.356054 0.341280 0.409144 0.419548 0.400331
65 0.401083 0.458463 0.395539 0.395193 0.409393 0.436034
65 0.440902 0.400549 0.422495 0.391893 0.436619 0.445268
65 0.469795 0.593157 0.556795 0.616039 0.708227 0.812273
65 0.840616 1.028378 0.944125 1.029955 1.096622 1.239305
65 1.236521 1.246020 1.231080 1.371475 1.511182 1.397099
65 1.513489 1.519902 1.604031 1.473968 1.790012 1.464399
65 1.564907 1.701482 1.647636 1.705136 1.578937 1.621145
65 1.628928 1.778520 1.689116 1.694660 1.548366 1.699501
65 1.621656 1.726645 1.779352 1.551936 1.535912 1.485937
65 1.546195 1.515980 1.576112 1.520110 1.490143 1.608667
65 1.415591 1.525525 1.436933 1.521215 1.561992 1.399798
65 1.446019 1.406195 1.307534 1.374837 1.360099 1.351117
65 1.284525 1.288871 1.176404 1.218601 1.268514 1.274860
65 1.162678 1.183531 1.175692 1.157827 1.165342 0.992512
65 1.096745 1.102245 1.009602 1.168962 1.061506 1.138930
65 0.983183 0.968269 1.030615 0.909116 1.019064 1.008272
65 1.060940 1.040826 0.973653 0.933510 1.103298 0.954376
65 0.940586 0.939475 1.073211 0.974673 0.959804 1.011638
65 0.987583 0.954568 1.033396 1.043808 1.030080 1.007699
65 0.976744 0.843265 1.027549 0.941210 0.948851 0.967902
65 0.977401 0.916453 0.912486 0.853828 0.884993 0.836713
65 0.843559 0.835086 0.875850 0.942613 1.059754 0.904946
65 0.827186 0.974756 0.896203 0.883504 0.939476 0.866393
65 0.957333 0.948610 0.968507 0.994363 0.985436 0.991754
65 1.017059 1.034198 0.954926 0.938557 1.031385 0.953934
65 1.057490 1.119885 1.107195 1.008617 1.028294 1.113666
65 1.073514 1.086768 1.155582 1.056911 1.104116 1.084634
65 1.075601 1.096219 1.211369 1.176307 1.119178 1.174096
65 1.082006 1.156465 1.376863 1.222852 1.293785 1.244134
65 1.284660 1.317668 1.190970 1.280668 1.411912 1.233596
65 1.255818 1.279306 1.326706 1.348101 1.406860 1.346452
65 1.301731 1.404186 1.359390 1.186026 1.499010 1.438787
65 1.286879 1.329286 1.403336 1.287112 1.358270 1.388308
65 1.223423 1.256221 1.375706 1.339613 1.375242 1.291510
65 1.277458 1.141749 1.204812 1.292944 1.347387 1.318136
65 1.260146 1.240738 1.267848 1.246395 1.331877 1.225525
65 1.093350 1.093376 1.272345 1.066332 1.177898 1.086196
65 1.069081 1.046034 1.102521 0.986647 0.965406 0.848780
65 0.911161 0.889330 0.838419 0.860531 0.766412 0.749465
65 0.781250 0.623813 0.648429 0.702860 0.665420 0.639259
65 0.629975 0.598654 0.631865 0.577850 0.563556 0.552162
65 0.545306 0.494880 0.549282 0.514501 0.568336 0.503890
65 0.512628 0.500957 0.468807 0.508853 0.527217 0.465248
65 0.449542 0.439922 0.390682 0.426826 0.427921 0.437128
65 0.423041 0.378553 0.369874 0.388440 0.348235 0.329996
65 0.357302 0.340148 0.312456 0.294833 0.264999 0.309963
65 0.283865 0.267708 0.338768 0.329591 0.304357 0.312589
65 0.366398 0.340418 0.398905 0.394103 0.401163 0.405061
65 0.404595 0.423267 0.391252 0.403516 0.418706 0.414198
65 0.373587 0.394646 0.421113 0.416758 0.492325 0.457848
65 0.495133 0.563669 0.596178 0.630789 0.661559 0.767224
65 0.867970 0.907665 0.904093 1.119899 0.985151 1.032701
65 1.269160 1.271773 1.262249 1.262557 1.588084 1.442431
65 1.513952 1.526349 1.564803 1.598938 1.638041 1.550425
65 1.572002 1.442549 1.543025 1.650671 1.729417 1.686985
65 1.594460 1.502277 1.351646 1.729116 1.555010 1.562914
65 1.612631 1.459392 1.554195 1.772987 1.622027 1.600965
65 1.411545 1.760406 1.411124 1.710273 1.329892 1.639584
65 1.645625 1.413338 1.510148 1.505743 1.371713 1.301763
65 1.297362 1.436432 1.366397 1.309371 1.414456 1.358648
65 1.241074 1.189258 1.303063 1.205191 1.234872 1.324508
65 1.228859 1.115292 1.171002 1.078608 1.237653 1.076499
65 1.113680 1.106724 1.084330 0.937439 0.960077 1.012995
65 1.051921 1.015549 0.958530 0.929149 0.981847 0.974248
65 1.030770 0.979258 1.034782 0.963660 0.985142 0.981073
65 0.956431 1.042574 0.956687 0.974508 1.000854 0.925246
65 0.980504 0.952585 0.965644 0.977570 0.925903 0.950648
65 1.028589 0.942373 0.998184 0.943679 0.957969 0.865056
65 0.905665 0.901193 0.856561 0.841946 0.804264 0.961078
65 0.830204 0.953670 0.859327 0.840903 0.923612 0.860886
65 0.930697 0.887900 0.938983 0.866526 0.974074 0.963479
65 0.892594 1.104895 0.994027 1.105712 1.075698 0.979558
65 0.975264 0.984622 0.906155 0.983780 1.050541 1.139204
65 1.003190 1.116279 0.987993 1.038442 1.054487 1.116517
65 1.130182 1.171781 1.167224 1.139854 1.157851 1.247918
65 1.112241 1.209366 1.037766 1.201603 1.147244 1.190789
65 1.274886 1.221640 1.284343 1.338230 1.268311 1.336802
65 1.233716 1.266614 1.235511 1.363341 1.321777 1.256002
65 1.312064 1.384821 1.302555 1.232527 1.317784 1.151924
65 1.366864 1.272547 1.267561 1.371414 1.195075 1.452614
65 1.262541 1.259006 1.379691 1.355851 1.492627 1.285518
65 1.293335 1.187642 1.277659 1.247145 1.267933 1.165623
65 1.429527 1.187054 1.076247 1.197369 1.237354 1.189315
65 1.353603 1.250874 1.253446 1.286008 1.249439 1.286179
65 1.120118 1.144873 1.212679 0.972510 1.033311 1.137157
65 1.048960 1.113750 1.077115 0.926441 0.990942 1.002011
65 0.907961 0.811322 0.870171 0.824210 0.788753 0.767884
65 0.583194 0.724130 0.738987 0.664420 0.637318 0.639924
65 0.612176 0.610093 0.575574 0.539049 0.522082 0.514188
65 0.494658 0.497729 0.580486 0.542022 0.493117 0.494330
65 0.503377 0.474236 0.489062 0.502671 0.472121 0.475049
65 0.482145 0.442158 0.448253 0.423420 0.420851 0.403101
65 0.387307 0.392302 0.388907 0.367095 0.362427 0.325341
65 0.305935 0.328226 0.324985 0.306640 0.325756 0.315675
65 0.348250 0.299786 0.290813 0.303168 0.315598 0.346785
65 0.303115 0.387777 0.364807 0.374418 0.363481 0.392749
65 0.400318 0.399086 0.410393 0.387243 0.379098 0.413846
65 0.404824 0.411675 0.441179 0.401006 0.422115 0.504281
65 0.455513 0.496465 0.613271 0.645430 0.697391 0.749447
65 0.818564 0.877427 1.025502 0.989983 1.068338 1.263911
65 1.201981 1.422810 1.297063 1.462547 1.255525 1.445572
65 1.327475 1.573670 1.414039 1.575119 1.542519 1.475910
65 1.444541 1.561425 1.787880 1.595649 1.716938 1.622881
65 1.713358 1.447297 1.582690 1.709482 1.596210 1.597800
65 1.558676 1.703717 1.615850 1.585213 1.635031 1.622496
65 1.579525 1.695561 1.537252 1.558995 1.464429 1.525701
65 1.642899 1.429499 1.372631 1.545042 1.429256 1.433938
65 1.404928 1.397875 1.443498 1.287024 1.255748 1.325178
65 1.174698 1.176043 1.404900 1.301959 1.226824 1.299947
65 1.118425 1.153870 1.203208 1.205133 1.163455 0.944174
65 1.036107 1.117765 1.051128 1.224173 1.109762 1.076122
65 0.962968 1.021846 1.031649 1.079347 1.059277 1.064554
65 0.944565 1.083442 0.915952 0.967182 1.026367 0.992986
65 0.942963 0.955350 0.912352 1.038104 1.081297 0.997305
65 0.975979 0.907150 1.042841 1.111268 0.867692 0.901900
65 0.914817 0.911877 0.946744 1.013998 0.970846 0.935930
65 0.860908 0.833952 0.846736 0.967936 0.879967 0.858266
65 0.871923 0.926054 0.814483 0.962076 0.898715 0.883157
65 0.923914 0.917864 0.893826 0.906019 0.879427 0.972938
65 0.914568 0.898950 0.972406 1.049641 0.978615 0.954633
65 1.024234 1.126302 0.929249 1.050185 1.047952 1.116384
65 1.114510 1.048295 0.960308 1.128392 1.029925 1.030114
65 1.175791 1.047272 1.209529 1.146101 1.153015 1.160332
65 1.034618 1.032475 1.179108 1.212626 1.187358 1.131918
65 1.201362 1.203736 1.149531 1.304310 1.110709 1.293163
65 1.287390 1.344011 1.198570 1.290856 1.457746 1.346887
65 1.307845 1.345531 1.312382 1.478741 1.384599 1.300558
65 1.326377 1.274939 1.398968 1.193029 1.176364 1.414500
65 1.467943 1.336336 1.308827 1.351838 1.250729 1.315395
65 1.305788 1.352320 1.181772 1.263914 1.369081 1.249093
65 1.222518 1.456275 1.296730 1.244519 1.153502 1.333324
65 1.323188 1.238696 1.168771 1.238746 1.166756 1.146180
65 1.192569 1.109085 1.183342 1.188766 1.069500 1.013342
65 1.181261 0.995029 0.986566 1.010955 1.002127 0.920250
65 0.924883 0.841133 0.778395 0.861885 0.877936 0.811177
65 0.716981 0.763437 0.680890 0.628916 0.647662 0.610778
65 0.564608 0.555486 0.603219 0.502440 0.575698 0.493468
65 0.470461 0.473125 0.586959 0.512454 0.514992 0.549292
65 0.528025 0.452438 0.512486 0.485571 0.463436 0.466339
65 0.492949 0.425603 0.451323 0.431179 0.376114 0.391322
65 0.404637 0.418477 0.398718 0.376941 0.334684 0.377202
65 0.334009 0.300878 0.308679 0.322165 0.301517 0.315300
65 0.319866 0.310734 0.293432 0.319836 0.327568 0.374769
65 0.314225 0.356441 0.357150 0.387687 0.331808 0.421913
65 0.400330 0.357530 0.393496 0.416114 0.362376 0.400742
65 0.376907 0.393289 0.415486 0.431919 0.432380 0.476584
65 0.524539 0.529779 0.634797 0.692163 0.675189 0.724751
65 0.735450 0.875602 0.927693 1.061619 0.981067 1.122066
65 1.269750 1.199784 1.245578 1.234305 1.613157 1.368128
65 1.352482 1.425542 1.454169 1.523717 1.646791 1.557743
65 1.511409 1.470546 1.620938 1.628396 1.776862 1.637487
65 1.618064 1.523004 1.592152 1.574800 1.576198 1.513690
65 1.651680 1.580182 1.568428 1.418438 1.620918 1.612979
65 1.481107 1.643716 1.416497 1.531398 1.498404 1.392582
65 1.517073 1.638777 1.478782 1.417353 1.480809 1.434769
65 1.411087 1.355748 1.490588 1.392367 1.294500 1.309912
65 1.242212 1.234852 1.214828 1.160602 1.284814 1.188932
65 1.232566 1.128851 1.155621 1.095192 1.177457 1.097431
65 1.051762 0.979622 1.091832 1.017119 1.050320 1.010535
65 1.091230 1.057447 1.044219 0.973568 1.034235 1.105564
65 0.950069 1.009142 0.899847 1.083171 0.976620 1.049046
65 0.899780 1.113263 0.984249 1.038930 1.014361 0.987969
65 1.101148 0.896659 1.006389 1.034703 0.970840 0.956538
65 0.945540 0.874313 0.936140 0.952898 0.919215 0.892391
65 0.873555 0.879028 0.956354 0.774787 0.885363 0.864568
65 0.958653 0.885334 0.962898 0.773787 0.914908 0.909807
65 0.975089 0.816769 0.904185 0.923615 0.900194 1.004400
65 0.925525 1.070096 1.023723 1.027575 1.014398 0.927550
65 0.974134 1.043724 1.059307 1.107163 1.006179 0.989788
65 1.106190 1.008671 1.124257 1.153783 1.113934 1.068721
65 1.102711 1.147263 1.116308 1.271644 1.064105 1.070785
65 1.080161 1.114767 1.011870 1.128359 1.135191 1.196214
65 1.230082 1.119673 1.285431 1.362462 1.223888 1.367029
65 1.273396 1.418450 1.361013 1.162655 1.291174 1.377375
65 1.302383 1.300484 1.405102 1.251274 1.308811 1.332657
65 1.280427 1.303974 1.364940 1.336792 1.238534 1.214497
65 1.238450 1.299911 1.287558 1.235629 1.254547 1.183270
65 1.335408 1.300194 1.205097 1.305810 1.407986 1.244068
65 1.402581 1.272144 1.309128 1.296865 1.391832 1.289567
65 1.182910 1.162094 1.136429 1.113144 1.231760 1.144994
65 1.194182 1.133768 1.112157 1.113837 1.173782 1.165517
65 1.104136 0.991894 1.066912 1.039456 0.983280 0.900774
65 0.938278 0.883733 0.671983 0.824640 0.676171 0.765570
65 0.704360 0.737033 0.662736 0.613015 0.624462 0.653316
65 0.600945 0.583105 0.601199 0.572174 0.555363 0.591775
65 0.589367 0.551368 0.515998 0.565134 0.548699 0.528021
65 0.463518 0.497820 0.465355 0.475682 0.479950 0.468459
65 0.444743 0.483828 0.395871 0.450330 0.374589 0.420548
65 0.378714 0.408715 0.378072 0.369309 0.330397 0.327043
65 0.333851 0.331425 0.366955 0.309813 0.319029 0.271404
65 0.276062 0.296970 0.287127 0.345551 0.318642 0.365116
65 0.379264 0.360271 0.381264 0.378767 0.401206 0.406928
65 0.397032 0.414208 0.443807 0.418620 0.408463 0.403664
65 0.377989 0.381784 0.422869 0.392115 0.424489 0.504964
65 0.557427 0.484939 0.641640 0.628263 0.692391 0.748463
65 0.870001 0.797195 0.974331 0.956713 1.115729 1.246682
65 1.199970 1.282939 1.337359 1.286804 1.520407 1.579025
65 1.528702 1.504367 1.482754 1.490534 1.730154 1.720741
65 1.593888 1.458118 1.343745 1.518665 1.614624 1.765311
65 1.564090 1.674706 1.748746 1.629824 1.598223 1.480009
65 1.484562 1.633594 1.568375 1.592660 1.569824 1.629634
65 1.486202 1.520303 1.718362 1.459827 1.497456 1.458610
65 1.540030 1.578097 1.428779 1.420118 1.417989 1.471050
65 1.346244 1.359887 1.177931 1.242900 1.327887 1.389484
65 1.323016 1.197135 1.157253 1.258412 1.105829 1.287453
65 1.197478 1.062715 1.092602 1.094281 1.076356 1.014446
65 1.042272 1.042038 1.028229 1.134160 1.057928 0.979202
65 1.011416 0.969974 0.998627 1.064045 1.021316 1.139893
65 1.022556 0.944063 1.047187 1.064066 1.066190 0.936212
65 0.994650 1.073124 0.904116 0.975849 0.919198 0.947207
65 0.939253 1.069715 0.974757 0.930275 0.912149 0.971558
65 0.953067 1.019949 0.962025 0.845041 0.880899 0.965459
65 0.866462 0.987053 0.830648 0.916100 0.837600 0.854945
65 0.939757 0.875668 0.927278 0.911976 0.930629 0.847089
65 0.888035 0.929054 0.866179 1.009914 0.884528 0.919223
65 0.887668 0.831027 1.066631 0.960197 0.955085 0.978970
65 1.085192 0.950618 1.059430 1.000538 0.998152 1.079159
65 1.114341 1.027482 1.019000 1.000807 1.156048 1.054457
65 0.977957 1.201534 1.023931 1.176004 1.143804 1.159009
65 1.107184 1.180997 1.047570 1.214035 1.291879 1.253757
65 1.054593 1.138254 1.205828 1.265431 1.231446 1.212079
65 1.303319 1.355753 1.257730 1.339164 1.090156 1.222558
65 1.274942 1.265161 1.331702 1.386433 1.347183 1.258468
65 1.187217 1.349180 1.160438 1.354007 1.286978 1.208901
65 1.322406 1.299589 1.297179 1.293977 1.334002 1.374235
65 1.341565 1.382472 1.300183 1.430158 1.347668 1.259396
65 1.214676 1.313340 1.192351 1.214004 1.302287 1.230832
65 1.198804 1.258697 1.256998 1.225252 1.200534 1.277146
65 1.224655 1.167891 1.338501 1.160265 1.202732 1.066814
65 0.991757 1.004426 1.010723 0.968454 1.044904 0.927892
65 0.924919 0.859465 0.805057 0.795750 0.842443 0.702333
65 0.743648 0.645437 0.648277 0.647597 0.642370 0.668918
65 0.598197 0.557414 0.597970 0.552696 0.563516 0.543131
65 0.476209 0.548017 0.543382 0.547390 0.567676 0.469890
65 0.515495 0.505776 0.474841 0.491707 0.487320 0.431611
65 0.464558 0.424739 0.423485 0.385488 0.409599 0.406089
65 0.413197 0.388276 0.341316 0.382725 0.349393 0.350388
65 0.348862 0.347546 0.348830 0.304400 0.307006 0.280001
65 0.319109 0.281869 0.275845 0.333064 0.316457 0.352886
65 0.356727 0.324204 0.309724 0.355040 0.389034 0.366469
65 0.384334 0.366835 0.406310 0.403633 0.389059 0.434249
65 0.438606 0.420661 0.370026 0.398900 0.455816 0.451225
65 0.485387 0.567857 0.602504 0.686510 0.675168 0.815772
65 0.789867 0.961683 0.954396 0.961847 0.973199 1.120417
65 1.181551 1.319340 1.296623 1.316581 1.484058 1.413046
65 1.416215 1.549420 1.480198 1.609969 1.512890 1.564915
65 1.614609 1.574658 1.617508 1.703722 1.667470 1.675448
65 1.565675 1.708648 1.687085 1.714820 1.541746 1.589512
65 1.660819 1.535584 1.565973 1.763723 1.758648 1.683777
65 1.647462 1.456659 1.590280 1.500370 1.426445 1.465903
65 1.510410 1.438054 1.424132 1.527135 1.454598 1.445697
65 1.418197 1.334865 1.260469 1.380511 1.296235 1.159388
65 1.269380 1.197639 1.316358 1.284337 1.264163 1.161779
65 1.245265 1.198698 1.131300 1.112881 1.189176 1.082380
65 1.120041 1.154074 1.197113 1.168318 1.108138 0.947173
65 0.989467 0.990340 1.117800 0.968521 1.029398 1.008491
65 0.943892 1.021696 1.022534 0.924020 1.073917 0.876557
65 0.967968 1.063487 0.933775 1.027136 0.927074 0.997749
65 0.861174 0.944748 0.897143 0.957447 0.948351 0.924430
65 0.999363 0.893610 0.969555 1.014831 0.923085 0.860526
65 0.832536 0.855937 0.926843 0.893939 0.932884 0.922672
65 0.889092 0.907464 0.982543 0.962117 0.874183 0.947904
65 0.931636 0.967765 0.949453 0.866196 0.837630 0.968233
65 1.052570 0.909283 0.951958 0.911704 1.050822 0.853748
65 0.864180 1.031753 1.012896 0.997098 1.016511 1.077276
65 1.025847 0.990396 1.008840 1.133673 1.050122 1.001377
65 1.106744 1.141382 1.204584 1.138150 1.086571 1.171730
65 1.197478 1.152950 1.160938 1.190964 1.176550 1.208472
65 1.126422 1.126189 1.158388 1.276885 1.258622 1.327000
65 1.244277 1.180282 1.363100 1.281604 1.389052 1.341902
65 1.470712 1.286181 1.376192 1.376836 1.263889 1.293744
65 1.192001 1.184229 1.314193 1.364949 1.351527 1.327198
65 1.367315 1.253823 1.278775 1.358100 1.335063 1.285597
65 1.405986 1.202290 1.263065 1.281405 1.366856 1.302052
65 1.201604 1.337331 1.378193 1.346494 1.331564 1.133766
65 1.201351 1.297789 1.247418 1.279470 1.135028 1.210368
65 1.099936 1.044999 1.186779 1.204910 1.142835 1.101786
65 0.978856 1.118179 1.024527 1.115559 1.022032 0.822181
65 0.940773 0.789651 0.788893 0.781995 0.759572 0.753820
65 0.667301 0.640292 0.690686 0.646943 0.636624 0.533407
65 0.593623 0.555754 0.543733 0.596299 0.519037 0.511080
65 0.528362 0.546166 0.497159 0.556958 0.556898 0.479417
65 0.492648 0.470589 0.437833 0.488996 0.493961 0.521871
65 0.433145 0.485535 0.476219 0.436550 0.436804 0.432651
65 0.447378 0.399386 0.374764 0.344989 0.358344 0.361331
65 0.334590 0.305229 0.313772 0.303356 0.306167 0.269520
65 0.309914 0.314283 0.317609 0.317185 0.291285 0.336765
65 0.370362 0.340803 0.325944 0.344917 0.395973 0.404306
65 0.421271 0.400694 0.366003 0.381731 0.420314 0.404042
65 0.418133 0.417475 0.409720 0.422757 0.494526 0.480576
65 0.496142 0.553518 0.592403 0.553967 0.720046 0.835926
65 0.778780 0.959277 0.933757 1.032070 1.148064 1.091763
65 1.289460 1.163356 1.236745 1.303517 1.449345 1.403072
65 1.333152 1.478322 1.453260 1.616706 1.536773 1.592869
65 1.561075 1.652756 1.600983 1.655942 1.374153 1.637956
65 1.668158 1.606037 1.687069 1.689026 1.738144 1.616232
65 1.416275 1.375245 1.434935 1.577441 1.559431 1.593159
65 1.501122 1.482982 1.594213 1.593759 1.499734 1.508591
65 1.536388 1.531880 1.371713 1.394912 1.335653 1.382363
65 1.477403 1.436871 1.282922 1.396913 1.343793 1.279383
65 1.190296 1.268184 1.314940 1.083730 1.198389 1.373733
65 1.241049 1.194477 1.108522 1.097437 1.123078 1.221175
65 1.130729 1.029796 1.149904 1.043620 1.158382 1.005857
65 0.970008 1.034744 1.076869 1.073867 1.015697 0.942995
65 0.969680 0.877860 0.943953 0.988615 1.023859 0.981590
65 1.000108 0.980997 1.051107 0.951724 1.055782 1.121396
65 1.028367 0.963583 0.956858 1.052315 0.906840 0.908237
65 0.887072 0.871432 0.875452 0.968273 0.975992 0.869268
65 0.911196 0.934731 0.894613 0.834925 0.805316 0.935377
65 0.907890 0.912942 0.825368 0.899296 0.923958 0.911631
65 0.859769 0.961018 0.829021 0.971233 0.987974 1.024381
65 0.925309 0.896479 1.008686 0.931333 0.984053 0.971911
65 0.945876 1.028482 0.932907 1.063121 0.975155 0.935211
65 1.048803 1.087628 1.105260 1.129154 0.931142 1.026287
65 1.107039 1.208782 1.168088 1.251627 1.095719 1.158086
65 1.071688 1.127610 1.112698 1.128054 1.153610 1.190799
65 1.201599 1.249134 1.229813 1.204129 1.200517 1.226024
65 1.224469 1.304569 1.341746 1.381129 1.228003 1.331909
65 1.191215 1.332551 1.390446 1.295208 1.391581 1.217968
65 1.236929 1.294913 1.384284 1.270321 1.266273 1.223276
65 1.315825 1.397041 1.354688 1.354911 1.285088 1.258011